ver_1.2
     RDKit          3D

 23 24  0  0  0  0  0  0  0  0999 V2000
    6.7225    0.3766   -1.5775 C   0  0  0  0  0  0  0  0  0  0  0  0
    6.2757    1.3078   -0.4838 C   0  0  0  0  0  0  0  0  0  0  0  0
    7.0772    1.1315    0.7887 C   0  0  0  0  0  0  0  0  0  0  0  0
    4.5053    1.1292   -0.2147 S   0  0  0  0  0  0  0  0  0  0  0  0
    4.1246   -0.5114    0.4372 C   0  0  0  0  0  0  0  0  0  0  0  0
    4.4167   -1.5846   -0.5703 C   0  0  0  0  0  0  0  0  0  0  0  0
    2.7256   -0.5319    0.9138 C   0  0  0  0  0  0  0  0  0  0  0  0
    2.5434   -0.7081    2.1572 O   0  0  0  0  0  0  0  0  0  0  0  0
    1.6381   -0.3618    0.0163 N   0  0  0  0  0  0  0  0  0  0  0  0
    1.6419   -0.1491   -1.4196 C   0  0  0  0  0  0  0  0  0  0  0  0
    0.3110    0.5707   -1.6827 C   0  0  0  0  0  0  0  0  0  0  0  0
   -0.2358    0.8699   -0.2789 C   0  0  0  0  0  0  0  0  0  0  0  0
    0.2236   -0.3760    0.4315 C   0  0  0  0  0  0  0  0  0  0  0  0
   -0.4634   -1.6296    0.0583 C   0  0  0  0  0  0  0  0  0  0  0  0
   -1.8280   -1.6440    0.4679 N   0  0  0  0  0  0  0  0  0  0  0  0
   -2.8799   -0.7913    0.1084 C   0  0  0  0  0  0  0  0  0  0  0  0
   -2.8255    0.1827   -0.6714 O   0  0  0  0  0  0  0  0  0  0  0  0
   -4.2269   -1.0742    0.7261 C   0  0  0  0  0  0  0  0  0  0  0  0
   -5.1959   -0.0508    0.2119 C   0  0  0  0  0  0  0  0  0  0  0  0
   -5.9893   -0.1033   -0.9104 C   0  0  0  0  0  0  0  0  0  0  0  0
   -6.6836    1.0067   -0.9825 O   0  0  0  0  0  0  0  0  0  0  0  0
   -6.3998    1.7889    0.0204 C   0  0  0  0  0  0  0  0  0  0  0  0
   -5.4772    1.1522    0.7759 N   0  0  0  0  0  0  0  0  0  0  0  0
  1  2  1  0
  2  3  1  0
  2  4  1  0
  4  5  1  0
  5  6  1  0
  5  7  1  0
  7  8  2  0
  7  9  1  0
  9 10  1  0
 10 11  1  0
 11 12  1  0
 12 13  1  0
 13 14  1  0
 14 15  1  0
 15 16  1  0
 16 17  2  0
 16 18  1  0
 18 19  1  0
 19 20  2  0
 20 21  1  0
 21 22  1  0
 22 23  2  0
 13  9  1  0
 23 19  1  0
M  END
>  <ref_url>  (1) 
https://hippo.winokan.com

>  <submitter_name>  (1) 
Max Winokan

>  <submitter_email>  (1) 
max.winokan@diamond.ac.uk

>  <submitter_institution>  (1) 
DLS

>  <generation_date>  (1) 
2025-09-11

>  <method>  (1) 
openbind_a71ev2a_c1_scaffold_products

>  <Energy>  (1) 
Energy

>  <scratch_subdir>  (1) 
scratch_subdir

>  <fragmenstein_runtime>  (1) 
fragmenstein_runtime

>  <fragmenstein_outcome>  (1) 
fragmenstein_outcome

>  <fragmenstein_mode>  (1) 
fragmenstein_mode

>  <fragmenstein_error>  (1) 
fragmenstein_error

>  <exports>  (1) 
exports

>  <HIPPO Pose ID>  (1) 
HIPPO Pose ID

>  <HIPPO Compound ID>  (1) 
HIPPO Compound ID

>  <smiles>  (1) 
smiles

>  <ref_pdb>  (1) 
protein reference

>  <ref_mols>  (1) 
fragment inspirations

>  <alias>  (1) 
alias

>  <distance_score>  (1) 
distance_score

>  <energy_score>  (1) 
energy_score

>  <inspiration_score>  (1) 
inspiration_score

>  <subsites>  (1) 
subsites

>  <tags>  (1) 
tags

$$$$
P810
     RDKit          3D

 23 26  0  0  0  0  0  0  0  0999 V2000
    7.9411   13.5581   22.4202 O   0  0  0  0  0  0  0  0  0  0  0  0
    8.0980   14.1460   23.7346 S   0  0  0  0  0  0  0  0  0  0  0  0
    6.9338   14.6988   24.4041 O   0  0  0  0  0  0  0  0  0  0  0  0
    9.3033   15.4832   23.7753 C   0  0  1  0  0  0  0  0  0  0  0  0
   10.6010   15.2925   24.5740 C   0  0  0  0  0  0  0  0  0  0  0  0
   11.8078   14.8196   23.7626 C   0  0  0  0  0  0  0  0  0  0  0  0
   11.9240   15.5553   22.4385 C   0  0  0  0  0  0  0  0  0  0  0  0
   10.6641   15.4037   21.7559 N   0  0  0  0  0  0  0  0  0  0  0  0
   10.6532   15.4961   20.4188 C   0  0  0  0  0  0  0  0  0  0  0  0
    9.5938   15.6219   19.6722 N   0  0  0  0  0  0  0  0  0  0  0  0
   10.0871   15.6834   18.4194 C   0  0  0  0  0  0  0  0  0  0  0  0
   11.4475   15.6182   18.4520 C   0  0  0  0  0  0  0  0  0  0  0  0
   11.8312   15.5046   19.7434 O   0  0  0  0  0  0  0  0  0  0  0  0
    9.5094   16.0368   22.3857 C   0  0  0  0  0  0  0  0  0  0  0  0
    8.7778   12.9371   24.7360 N   0  0  0  0  0  0  0  0  0  0  0  0
    9.7754   12.0423   24.0378 C   0  0  0  0  0  0  0  0  0  0  0  0
    9.1869   10.6271   23.9920 C   0  0  0  0  0  0  0  0  0  0  0  0
    8.0176   10.7469   24.9023 C   0  0  0  0  0  0  0  0  0  0  0  0
    7.1590    9.7459   25.3043 C   0  0  0  0  0  0  0  0  0  0  0  0
    6.0840   10.0712   26.1343 C   0  0  0  0  0  0  0  0  0  0  0  0
    5.8879   11.3878   26.5619 C   0  0  0  0  0  0  0  0  0  0  0  0
    6.7603   12.3918   26.1500 C   0  0  0  0  0  0  0  0  0  0  0  0
    7.8021   12.0553   25.3017 C   0  0  0  0  0  0  0  0  0  0  0  0
  1  2  2  0
  2  3  2  0
  4  2  1  6
  4  5  1  0
  5  6  1  0
  6  7  1  0
  7  8  1  0
  8  9  1  0
  9 10  2  0
 10 11  1  0
 11 12  2  0
 12 13  1  0
  8 14  1  0
  2 15  1  0
 15 16  1  0
 16 17  1  0
 17 18  1  0
 18 19  2  0
 19 20  1  0
 20 21  2  0
 21 22  1  0
 22 23  2  0
 14  4  1  0
 23 15  1  0
 13  9  1  0
 23 18  1  0
M  END
>  <ref_pdb>  (1) 
A5393a

>  <subsites>  (1) 
1 - Active Site

>  <HIPPO Compound ID>  (1) 
99664

>  <energy_score>  (1) 
-61.135087

>  <fragmenstein_mode>  (1) 
expansion

>  <scratch_subdir>  (1) 
/opt/xchem-fragalysis-2/maxwin/BulkDock/SCRATCH/511217/C45982-P611

>  <smiles>  (1) 
O=S(=O)([C@H]1CCCN(c2ncco2)C1)N1CCc2ccccc21

>  <alias>  (1) 
None

>  <ref_mols>  (1) 
A3623a,A5393a

>  <inspiration_score>  (1) 
None

>  <tags>  (1) 
BulkDock Fragalysis export,fragmenstein_placed,openbind_a71ev2a_c1_scaffolds,openbind_a71ev2a_c1_knitwork_pure

>  <fragmenstein_outcome>  (1) 
acceptable

>  <fragmenstein_error>  (1) 


>  <distance_score>  (1) 
0.997827

>  <inchikey>  (1) 
HFLHXSXUCRDIDV-UHFFFAOYSA-N

>  <name>  (1) 
P810

>  <HIPPO Pose ID>  (1) 
810

>  <Energy>  (1) 
-36.665237

>  <exports>  (1) 
['/opt/xchem-fragalysis-2/maxwin/BulkDock/OUTPUTS/openbind_a71ev2a_c1_knitwork_pure_165VWF8.sdf', '/opt/xchem-fragalysis-2/maxwin/BulkDock/OUTPUTS/openbind_a71ev2a_c1_knitwork_pure_1B07PTU.sdf', '/opt/xchem-fragalysis-2/maxwin/BulkDock/OUTPUTS/openbind_a71ev2a_c1_knitwork_pure_1B07UWE.sdf', '/opt/xchem-fragalysis-2/maxwin/openbind-hippo/a71ev2a/openbind_a71ev2a_c1_scaffold_products.sdf', '/opt/xchem-fragalysis-2/maxwin/openbind-hippo/a71ev2a/cycle_01/bulkdock/openbind_a71ev2a_c1_scaffold_products.sdf', '/opt/xchem-fragalysis-2/maxwin/openbind-hippo/a71ev2a/cycle_01/bulkdock/openbind_a71ev2a_c1_scaffolds.sdf']

>  <fragmenstein_runtime>  (1) 
46.598847

$$$$
P944
     RDKit          3D

 14 15  0  0  0  0  0  0  0  0999 V2000
    7.0381   10.3908   25.8630 O   0  0  0  0  0  0  0  0  0  0  0  0
    7.8008   10.8530   25.0216 C   0  0  0  0  0  0  0  0  0  0  0  0
    8.5970    9.9524   24.1295 C   0  0  0  0  0  0  0  0  0  0  0  0
    9.7349   10.5535   23.3501 C   0  0  0  0  0  0  0  0  0  0  0  0
    9.9206   12.0573   23.4739 C   0  0  0  0  0  0  0  0  0  0  0  0
    8.6138   12.7964   23.7398 C   0  0  2  0  0  0  0  0  0  0  0  0
    8.8591   14.3007   23.9581 C   0  0  0  0  0  0  0  0  0  0  0  0
    9.1050   14.9406   22.7137 O   0  0  0  0  0  0  0  0  0  0  0  0
   10.3906   15.1247   22.3568 C   0  0  0  0  0  0  0  0  0  0  0  0
   10.8366   15.3382   21.0406 C   0  0  0  0  0  0  0  0  0  0  0  0
   12.1571   15.5066   20.9876 N   0  0  0  0  0  0  0  0  0  0  0  0
   12.5415   15.4569   22.2676 N   0  0  0  0  0  0  0  0  0  0  0  0
   11.5188   15.1971   23.1397 C   0  0  0  0  0  0  0  0  0  0  0  0
    7.9427   12.1974   24.8779 N   0  0  0  0  0  0  0  0  0  0  0  0
  1  2  2  0
  2  3  1  0
  3  4  1  0
  4  5  1  0
  5  6  1  0
  6  7  1  1
  7  8  1  0
  8  9  1  0
  9 10  1  0
 10 11  2  0
 11 12  1  0
 12 13  1  0
  6 14  1  0
 14  2  1  0
 13  9  2  0
M  END
>  <ref_pdb>  (2) 
A3579a

>  <subsites>  (2) 
1 - Active Site

>  <HIPPO Compound ID>  (2) 
48074

>  <energy_score>  (2) 
-33.561941

>  <fragmenstein_mode>  (2) 
expansion

>  <scratch_subdir>  (2) 
/opt/xchem-fragalysis-2/maxwin/BulkDock/SCRATCH/511217/C33321-P170

>  <smiles>  (2) 
O=C1CCC[C@H](COc2cn[nH]c2)N1

>  <alias>  (2) 
None

>  <ref_mols>  (2) 
A3579a,A0556a

>  <inspiration_score>  (2) 
None

>  <tags>  (2) 
BulkDock Fragalysis export,fragmenstein_placed,openbind_a71ev2a_c1_scaffolds,openbind_a71ev2a_c1_knitwork_pure

>  <fragmenstein_outcome>  (2) 
acceptable

>  <fragmenstein_error>  (2) 


>  <distance_score>  (2) 
0.81618

>  <inchikey>  (2) 
XDBQWQWEVJPNBV-UHFFFAOYSA-N

>  <name>  (2) 
P944

>  <HIPPO Pose ID>  (2) 
944

>  <Energy>  (2) 
15.240541

>  <exports>  (2) 
['/opt/xchem-fragalysis-2/maxwin/BulkDock/OUTPUTS/openbind_a71ev2a_c1_knitwork_pure_165VWF8.sdf', '/opt/xchem-fragalysis-2/maxwin/openbind-hippo/a71ev2a/P944.sdf', '/opt/xchem-fragalysis-2/maxwin/BulkDock/OUTPUTS/openbind_a71ev2a_c1_knitwork_pure_1B07PTU.sdf', '/opt/xchem-fragalysis-2/maxwin/BulkDock/OUTPUTS/openbind_a71ev2a_c1_knitwork_pure_1B07UWE.sdf', '/opt/xchem-fragalysis-2/maxwin/openbind-hippo/a71ev2a/openbind_a71ev2a_c1_scaffold_products.sdf', '/opt/xchem-fragalysis-2/maxwin/openbind-hippo/a71ev2a/cycle_01/bulkdock/openbind_a71ev2a_c1_scaffold_products.sdf', '/opt/xchem-fragalysis-2/maxwin/openbind-hippo/a71ev2a/cycle_01/bulkdock/openbind_a71ev2a_c1_scaffolds.sdf']

>  <fragmenstein_runtime>  (2) 
5.082989

$$$$
P1411
     RDKit          3D

 19 21  0  0  0  0  0  0  0  0999 V2000
   -5.4965    4.8533    3.8424 O   0  0  0  0  0  0  0  0  0  0  0  0
   -4.6776    5.2598    4.6460 C   0  0  0  0  0  0  0  0  0  0  0  0
   -3.4394    5.7679    4.2879 N   0  0  0  0  0  0  0  0  0  0  0  0
   -2.6263    6.0059    5.4494 C   0  0  1  0  0  0  0  0  0  0  0  0
   -1.7399    7.2183    5.3752 C   0  0  0  0  0  0  0  0  0  0  0  0
   -1.8842    8.2178    4.4034 C   0  0  0  0  0  0  0  0  0  0  0  0
   -1.0354    9.3276    4.3998 C   0  0  0  0  0  0  0  0  0  0  0  0
   -0.0608    9.4737    5.3857 C   0  0  0  0  0  0  0  0  0  0  0  0
    0.0748    8.5033    6.3735 C   0  0  0  0  0  0  0  0  0  0  0  0
   -0.7399    7.3759    6.3421 C   0  0  0  0  0  0  0  0  0  0  0  0
   -0.5204    6.3907    7.2287 F   0  0  0  0  0  0  0  0  0  0  0  0
   -3.6750    6.0901    6.5632 C   0  0  0  0  0  0  0  0  0  0  0  0
   -4.7876    5.3108    6.0425 N   0  0  0  0  0  0  0  0  0  0  0  0
   -6.0875    5.2154    6.7306 C   0  0  2  0  0  0  0  0  0  0  0  0
   -5.9423    5.3444    8.2597 C   0  0  0  0  0  0  0  0  0  0  0  0
   -7.2699    5.1234    8.9781 C   0  0  0  0  0  0  0  0  0  0  0  0
   -7.9036    3.7977    8.5743 C   0  0  0  0  0  0  0  0  0  0  0  0
   -8.1036    3.7441    7.1316 N   0  0  0  0  0  0  0  0  0  0  0  0
   -6.8367    3.8961    6.4001 C   0  0  0  0  0  0  0  0  0  0  0  0
  1  2  2  0
  2  3  1  0
  3  4  1  0
  4  5  1  6
  5  6  2  0
  6  7  1  0
  7  8  2  0
  8  9  1  0
  9 10  2  0
 10 11  1  0
  4 12  1  0
 12 13  1  0
 14 13  1  6
 14 15  1  0
 15 16  1  0
 16 17  1  0
 17 18  1  0
 18 19  1  0
 13  2  1  0
 19 14  1  0
 10  5  1  0
M  END
>  <ref_pdb>  (3) 
A3616b

>  <subsites>  (3) 
1 - Active Site,17 - A1081/A/201/1

>  <HIPPO Compound ID>  (3) 
50543

>  <energy_score>  (3) 
-41.067148

>  <fragmenstein_mode>  (3) 
expansion

>  <scratch_subdir>  (3) 
/opt/xchem-fragalysis-2/maxwin/BulkDock/SCRATCH/511217/C47239-P197

>  <smiles>  (3) 
O=C1N[C@@H](c2ccccc2F)CN1[C@@H]1CCCNC1

>  <alias>  (3) 
None

>  <ref_mols>  (3) 
A1081b,A3616b

>  <inspiration_score>  (3) 
None

>  <tags>  (3) 
BulkDock Fragalysis export,fragmenstein_placed,openbind_a71ev2a_c1_scaffolds,openbind_a71ev2a_c1_knitwork_pure

>  <fragmenstein_outcome>  (3) 
acceptable

>  <fragmenstein_error>  (3) 


>  <distance_score>  (3) 
0.866832

>  <inchikey>  (3) 
CXUYUFRBAKGUHD-UHFFFAOYSA-N

>  <name>  (3) 
P1411

>  <HIPPO Pose ID>  (3) 
1411

>  <Energy>  (3) 
-20.320961

>  <exports>  (3) 
['/opt/xchem-fragalysis-2/maxwin/BulkDock/OUTPUTS/openbind_a71ev2a_c1_knitwork_pure_165VWF8.sdf', '/opt/xchem-fragalysis-2/maxwin/BulkDock/OUTPUTS/openbind_a71ev2a_c1_knitwork_pure_1B07PTU.sdf', '/opt/xchem-fragalysis-2/maxwin/BulkDock/OUTPUTS/openbind_a71ev2a_c1_knitwork_pure_1B07UWE.sdf', '/opt/xchem-fragalysis-2/maxwin/openbind-hippo/a71ev2a/openbind_a71ev2a_c1_scaffold_products.sdf', '/opt/xchem-fragalysis-2/maxwin/openbind-hippo/a71ev2a/cycle_01/bulkdock/openbind_a71ev2a_c1_scaffold_products.sdf', '/opt/xchem-fragalysis-2/maxwin/openbind-hippo/a71ev2a/cycle_01/bulkdock/openbind_a71ev2a_c1_scaffolds.sdf']

>  <fragmenstein_runtime>  (3) 
21.310959

$$$$
P2537
     RDKit          3D

 21 23  0  0  0  0  0  0  0  0999 V2000
   26.4206   10.6734    1.1780 C   0  0  0  0  0  0  0  0  0  0  0  0
   27.1007   11.7382    1.9319 C   0  0  0  0  0  0  0  0  0  0  0  0
   28.4571   11.6809    2.1512 N   0  0  0  0  0  0  0  0  0  0  0  0
   28.8185   12.7763    2.8654 C   0  0  0  0  0  0  0  0  0  0  0  0
   27.7856   13.5316    3.1450 N   0  0  0  0  0  0  0  0  0  0  0  0
   26.6833   12.8872    2.5943 C   0  0  0  0  0  0  0  0  0  0  0  0
   25.0579   13.4860    2.8457 S   0  0  0  0  0  0  0  0  0  0  0  0
   25.0981   14.9092    2.5972 O   0  0  0  0  0  0  0  0  0  0  0  0
   24.6544   12.9357    4.1156 O   0  0  0  0  0  0  0  0  0  0  0  0
   23.9943   12.8151    1.7055 N   0  0  0  0  0  0  0  0  0  0  0  0
   22.7468   13.5820    1.4193 C   0  0  0  0  0  0  0  0  0  0  0  0
   22.0277   14.0944    2.6595 C   0  0  0  0  0  0  0  0  0  0  0  0
   20.6235   14.3802    2.4149 N   0  0  0  0  0  0  0  0  0  0  0  0
   19.6960   13.4055    2.5941 N   0  0  0  0  0  0  0  0  0  0  0  0
   18.5352   14.0448    2.4393 C   0  0  0  0  0  0  0  0  0  0  0  0
   18.7002   15.4115    2.1330 C   0  0  0  0  0  0  0  0  0  0  0  0
   17.8453   16.4997    1.8906 C   0  0  0  0  0  0  0  0  0  0  0  0
   18.4088   17.7516    1.6182 C   0  0  0  0  0  0  0  0  0  0  0  0
   19.7924   17.9214    1.5892 C   0  0  0  0  0  0  0  0  0  0  0  0
   20.6580   16.8513    1.8322 C   0  0  0  0  0  0  0  0  0  0  0  0
   20.0792   15.6041    2.1017 C   0  0  0  0  0  0  0  0  0  0  0  0
  1  2  1  0
  2  3  1  0
  3  4  1  0
  4  5  2  0
  5  6  1  0
  6  7  1  0
  7  8  2  0
  7  9  2  0
  7 10  1  0
 10 11  1  0
 11 12  1  0
 12 13  1  0
 13 14  1  0
 14 15  2  0
 15 16  1  0
 16 17  2  0
 17 18  1  0
 18 19  2  0
 19 20  1  0
 20 21  2  0
  6  2  2  0
 21 13  1  0
 21 16  1  0
M  END
>  <ref_pdb>  (4) 
A0309a

>  <subsites>  (4) 
6 - A0486/A/147/1

>  <HIPPO Compound ID>  (4) 
125028

>  <energy_score>  (4) 
-389.344039

>  <fragmenstein_mode>  (4) 
expansion

>  <scratch_subdir>  (4) 
/opt/xchem-fragalysis-2/maxwin/BulkDock/SCRATCH/511217/C97401-P36

>  <smiles>  (4) 
Cc1[nH]cnc1S(=O)(=O)NCCn1ncc2ccccc21

>  <alias>  (4) 
None

>  <ref_mols>  (4) 
A0486a,A0309a

>  <inspiration_score>  (4) 
None

>  <tags>  (4) 
BulkDock Fragalysis export,fragmenstein_placed,openbind_a71ev2a_c1_scaffolds,openbind_a71ev2a_c1_knitwork_pure

>  <fragmenstein_outcome>  (4) 
acceptable

>  <fragmenstein_error>  (4) 


>  <distance_score>  (4) 
0.884244

>  <inchikey>  (4) 
GKRPCXYDRCZNEJ-UHFFFAOYSA-N

>  <name>  (4) 
P2537

>  <HIPPO Pose ID>  (4) 
2537

>  <Energy>  (4) 
57.462452

>  <exports>  (4) 
['/opt/xchem-fragalysis-2/maxwin/BulkDock/OUTPUTS/openbind_a71ev2a_c1_knitwork_pure_165VWF8.sdf', '/opt/xchem-fragalysis-2/maxwin/BulkDock/OUTPUTS/openbind_a71ev2a_c1_knitwork_pure_1B07PTU.sdf', '/opt/xchem-fragalysis-2/maxwin/BulkDock/OUTPUTS/openbind_a71ev2a_c1_knitwork_pure_1B07UWE.sdf', '/opt/xchem-fragalysis-2/maxwin/openbind-hippo/a71ev2a/openbind_a71ev2a_c1_scaffold_products.sdf', '/opt/xchem-fragalysis-2/maxwin/openbind-hippo/a71ev2a/cycle_01/bulkdock/openbind_a71ev2a_c1_scaffold_products.sdf', '/opt/xchem-fragalysis-2/maxwin/openbind-hippo/a71ev2a/cycle_01/bulkdock/openbind_a71ev2a_c1_scaffolds.sdf']

>  <fragmenstein_runtime>  (4) 
2.232178

$$$$
P2540
     RDKit          3D

 19 21  0  0  0  0  0  0  0  0999 V2000
   25.1033   14.2281    3.4511 C   0  0  0  0  0  0  0  0  0  0  0  0
   25.0937   13.5704    2.0793 C   0  0  2  0  0  0  0  0  0  0  0  0
   23.8874   12.7998    1.7926 N   0  0  0  0  0  0  0  0  0  0  0  0
   22.6867   13.5492    1.4373 C   0  0  0  0  0  0  0  0  0  0  0  0
   21.9508   14.1106    2.6478 C   0  0  0  0  0  0  0  0  0  0  0  0
   20.5436   14.3787    2.3994 N   0  0  0  0  0  0  0  0  0  0  0  0
   19.6183   13.4120    2.6225 N   0  0  0  0  0  0  0  0  0  0  0  0
   18.4556   14.0472    2.4716 C   0  0  0  0  0  0  0  0  0  0  0  0
   18.6157   15.4097    2.1446 C   0  0  0  0  0  0  0  0  0  0  0  0
   17.7574   16.4958    1.9049 C   0  0  0  0  0  0  0  0  0  0  0  0
   18.3160   17.7443    1.6075 C   0  0  0  0  0  0  0  0  0  0  0  0
   19.6987   17.9134    1.5498 C   0  0  0  0  0  0  0  0  0  0  0  0
   20.5675   16.8453    1.7883 C   0  0  0  0  0  0  0  0  0  0  0  0
   19.9936   15.6012    2.0841 C   0  0  0  0  0  0  0  0  0  0  0  0
   26.2804   12.6481    1.9384 C   0  0  0  0  0  0  0  0  0  0  0  0
   27.0938   12.4613    0.8384 C   0  0  0  0  0  0  0  0  0  0  0  0
   28.0937   11.6326    1.2628 N   0  0  0  0  0  0  0  0  0  0  0  0
   27.8574   11.3359    2.5697 C   0  0  0  0  0  0  0  0  0  0  0  0
   26.7523   11.8977    2.9952 N   0  0  0  0  0  0  0  0  0  0  0  0
  2  1  1  1
  2  3  1  0
  3  4  1  0
  4  5  1  0
  5  6  1  0
  6  7  1  0
  7  8  2  0
  8  9  1  0
  9 10  2  0
 10 11  1  0
 11 12  2  0
 12 13  1  0
 13 14  2  0
  2 15  1  0
 15 16  2  0
 16 17  1  0
 17 18  1  0
 18 19  2  0
 14  6  1  0
 19 15  1  0
 14  9  1  0
M  END
>  <ref_pdb>  (5) 
A0309a

>  <subsites>  (5) 
6 - A0486/A/147/1

>  <HIPPO Compound ID>  (5) 
51269

>  <energy_score>  (5) 
-21.33307

>  <fragmenstein_mode>  (5) 
expansion

>  <scratch_subdir>  (5) 
/opt/xchem-fragalysis-2/maxwin/BulkDock/SCRATCH/511217/C97404-P36

>  <smiles>  (5) 
C[C@H](NCCn1ncc2ccccc21)c1c[nH]cn1

>  <alias>  (5) 
None

>  <ref_mols>  (5) 
A0486a,A0309a

>  <inspiration_score>  (5) 
None

>  <tags>  (5) 
BulkDock Fragalysis export,fragmenstein_placed,openbind_a71ev2a_c1_scaffolds,openbind_a71ev2a_c1_knitwork_pure

>  <fragmenstein_outcome>  (5) 
acceptable

>  <fragmenstein_error>  (5) 


>  <distance_score>  (5) 
0.839041

>  <inchikey>  (5) 
NHKSKEKGNRBSQB-UHFFFAOYSA-N

>  <name>  (5) 
P2540

>  <HIPPO Pose ID>  (5) 
2540

>  <Energy>  (5) 
61.458548

>  <exports>  (5) 
['/opt/xchem-fragalysis-2/maxwin/BulkDock/OUTPUTS/openbind_a71ev2a_c1_knitwork_pure_165VWF8.sdf', '/opt/xchem-fragalysis-2/maxwin/BulkDock/OUTPUTS/openbind_a71ev2a_c1_knitwork_pure_1B07PTU.sdf', '/opt/xchem-fragalysis-2/maxwin/BulkDock/OUTPUTS/openbind_a71ev2a_c1_knitwork_pure_1B07UWE.sdf', '/opt/xchem-fragalysis-2/maxwin/openbind-hippo/a71ev2a/openbind_a71ev2a_c1_scaffold_products.sdf', '/opt/xchem-fragalysis-2/maxwin/openbind-hippo/a71ev2a/cycle_01/bulkdock/openbind_a71ev2a_c1_scaffold_products.sdf', '/opt/xchem-fragalysis-2/maxwin/openbind-hippo/a71ev2a/cycle_01/bulkdock/openbind_a71ev2a_c1_scaffolds.sdf']

>  <fragmenstein_runtime>  (5) 
2.648939

$$$$
P3246
     RDKit          3D

 21 23  0  0  0  0  0  0  0  0999 V2000
    9.7150   10.0184   23.1173 C   0  0  0  0  0  0  0  0  0  0  0  0
    8.9044   10.8294   24.0556 C   0  0  0  0  0  0  0  0  0  0  0  0
    7.7504   10.3001   24.5719 N   0  0  0  0  0  0  0  0  0  0  0  0
    7.1632   11.1802   25.4394 C   0  0  0  0  0  0  0  0  0  0  0  0
    6.0146   11.0362   26.2194 C   0  0  0  0  0  0  0  0  0  0  0  0
    5.6124   12.1249   26.9923 C   0  0  0  0  0  0  0  0  0  0  0  0
    6.3341   13.3131   26.9806 C   0  0  0  0  0  0  0  0  0  0  0  0
    7.4950   13.4313   26.2125 C   0  0  0  0  0  0  0  0  0  0  0  0
    7.9331   12.3368   25.4381 C   0  0  0  0  0  0  0  0  0  0  0  0
    9.0899   12.0847   24.6322 C   0  0  0  0  0  0  0  0  0  0  0  0
   10.2409   12.9827   24.5234 C   0  0  0  0  0  0  0  0  0  0  0  0
   10.4662   13.9096   25.2979 O   0  0  0  0  0  0  0  0  0  0  0  0
   11.0932   12.7085   23.4972 O   0  0  0  0  0  0  0  0  0  0  0  0
   10.6863   13.5075   22.3991 C   0  0  0  0  0  0  0  0  0  0  0  0
   11.8581   13.8924   21.4850 C   0  0  0  0  0  0  0  0  0  0  0  0
   11.3057   14.9560   20.6061 C   0  0  0  0  0  0  0  0  0  0  0  0
   10.7379   14.7785   19.3760 C   0  0  0  0  0  0  0  0  0  0  0  0
    9.8349   15.7250   18.9194 C   0  0  0  0  0  0  0  0  0  0  0  0
    9.6164   16.8763   19.6491 C   0  0  0  0  0  0  0  0  0  0  0  0
   10.2330   17.1154   20.7980 N   0  0  0  0  0  0  0  0  0  0  0  0
   11.0775   16.1601   21.2107 C   0  0  0  0  0  0  0  0  0  0  0  0
  1  2  1  0
  2  3  1  0
  3  4  1  0
  4  5  2  0
  5  6  1  0
  6  7  2  0
  7  8  1  0
  8  9  2  0
  9 10  1  0
 10 11  1  0
 11 12  2  0
 11 13  1  0
 13 14  1  0
 14 15  1  0
 15 16  1  0
 16 17  2  0
 17 18  1  0
 18 19  2  0
 19 20  1  0
 20 21  2  0
 10  2  2  0
 21 16  1  0
  9  4  1  0
M  END
>  <ref_pdb>  (6) 
A3568a

>  <subsites>  (6) 
1 - Active Site

>  <HIPPO Compound ID>  (6) 
118932

>  <energy_score>  (6) 
-4.356648

>  <fragmenstein_mode>  (6) 
expansion

>  <scratch_subdir>  (6) 
/opt/xchem-fragalysis-2/maxwin/BulkDock/SCRATCH/511217/C132369-P220

>  <smiles>  (6) 
Cc1[nH]c2ccccc2c1C(=O)OCCc1cccnc1

>  <alias>  (6) 
None

>  <ref_mols>  (6) 
A3568a,A2629a

>  <inspiration_score>  (6) 
None

>  <tags>  (6) 
BulkDock Fragalysis export,fragmenstein_placed,openbind_a71ev2a_c1_scaffolds,openbind_a71ev2a_c1_knitwork_pure

>  <fragmenstein_outcome>  (6) 
acceptable

>  <fragmenstein_error>  (6) 


>  <distance_score>  (6) 
0.901956

>  <inchikey>  (6) 
RQGLZHKMFNDMSH-UHFFFAOYSA-N

>  <name>  (6) 
P3246

>  <HIPPO Pose ID>  (6) 
3246

>  <Energy>  (6) 
80.956755

>  <exports>  (6) 
['/opt/xchem-fragalysis-2/maxwin/BulkDock/OUTPUTS/openbind_a71ev2a_c1_knitwork_pure_165VWF8.sdf', '/opt/xchem-fragalysis-2/maxwin/BulkDock/OUTPUTS/openbind_a71ev2a_c1_knitwork_pure_1B07PTU.sdf', '/opt/xchem-fragalysis-2/maxwin/BulkDock/OUTPUTS/openbind_a71ev2a_c1_knitwork_pure_1B07UWE.sdf', '/opt/xchem-fragalysis-2/maxwin/openbind-hippo/a71ev2a/openbind_a71ev2a_c1_scaffold_products.sdf', '/opt/xchem-fragalysis-2/maxwin/openbind-hippo/a71ev2a/cycle_01/bulkdock/openbind_a71ev2a_c1_scaffold_products.sdf', '/opt/xchem-fragalysis-2/maxwin/openbind-hippo/a71ev2a/cycle_01/bulkdock/openbind_a71ev2a_c1_scaffolds.sdf']

>  <fragmenstein_runtime>  (6) 
3.063687

$$$$
P4097
     RDKit          3D

 21 23  0  0  0  0  0  0  0  0999 V2000
    8.9555   16.8321   19.4887 C   0  0  0  0  0  0  0  0  0  0  0  0
    9.3961   15.6858   18.8254 C   0  0  0  0  0  0  0  0  0  0  0  0
   10.4288   14.9195   19.3063 C   0  0  0  0  0  0  0  0  0  0  0  0
   10.8987   15.2501   20.5438 C   0  0  0  0  0  0  0  0  0  0  0  0
   11.8695   14.3885   21.2525 C   0  0  0  0  0  0  0  0  0  0  0  0
   11.1176   13.3243   22.0498 C   0  0  0  0  0  0  0  0  0  0  0  0
   10.8675   13.6381   23.4296 N   0  0  0  0  0  0  0  0  0  0  0  0
   10.8735   12.5725   24.3671 C   0  0  0  0  0  0  0  0  0  0  0  0
    9.6893   11.6795   24.3453 C   0  0  0  0  0  0  0  0  0  0  0  0
    9.5176   10.4689   23.7191 C   0  0  0  0  0  0  0  0  0  0  0  0
    8.4644    9.8493   24.3124 O   0  0  0  0  0  0  0  0  0  0  0  0
    7.9840   10.7620   25.1959 C   0  0  0  0  0  0  0  0  0  0  0  0
    8.6899   11.8566   25.2822 N   0  0  0  0  0  0  0  0  0  0  0  0
    9.8283   14.5879   23.7100 C   0  0  0  0  0  0  0  0  0  0  0  0
    8.4156   14.3352   23.3311 C   0  0  0  0  0  0  0  0  0  0  0  0
    7.8108   14.2565   22.0989 C   0  0  0  0  0  0  0  0  0  0  0  0
    6.4676   14.1602   22.2793 O   0  0  0  0  0  0  0  0  0  0  0  0
    6.3187   14.2601   23.6288 C   0  0  0  0  0  0  0  0  0  0  0  0
    7.4361   14.3691   24.3063 N   0  0  0  0  0  0  0  0  0  0  0  0
   10.4255   16.3012   21.2283 N   0  0  0  0  0  0  0  0  0  0  0  0
    9.4730   17.0837   20.7036 C   0  0  0  0  0  0  0  0  0  0  0  0
  1  2  2  0
  2  3  1  0
  3  4  2  0
  4  5  1  0
  5  6  1  0
  6  7  1  0
  7  8  1  0
  8  9  1  0
  9 10  2  0
 10 11  1  0
 11 12  1  0
 12 13  2  0
  7 14  1  0
 14 15  1  0
 15 16  2  0
 16 17  1  0
 17 18  1  0
 18 19  2  0
  4 20  1  0
 20 21  2  0
 21  1  1  0
 13  9  1  0
 19 15  1  0
M  END
>  <ref_pdb>  (7) 
A3623a

>  <subsites>  (7) 
1 - Active Site

>  <HIPPO Compound ID>  (7) 
55900

>  <energy_score>  (7) 
-26.17015

>  <fragmenstein_mode>  (7) 
expansion

>  <scratch_subdir>  (7) 
/opt/xchem-fragalysis-2/maxwin/BulkDock/SCRATCH/511217/C118307-P200

>  <smiles>  (7) 
c1ccc(CCN(Cc2cocn2)Cc2cocn2)nc1

>  <alias>  (7) 
None

>  <ref_mols>  (7) 
A3623a,A3568a

>  <inspiration_score>  (7) 
None

>  <tags>  (7) 
BulkDock Fragalysis export,fragmenstein_placed,openbind_a71ev2a_c1_scaffolds,openbind_a71ev2a_c1_knitwork_pure

>  <fragmenstein_outcome>  (7) 
acceptable

>  <fragmenstein_error>  (7) 


>  <distance_score>  (7) 
0.73825

>  <inchikey>  (7) 
AUFDHAWKPJKIFW-UHFFFAOYSA-N

>  <name>  (7) 
P4097

>  <HIPPO Pose ID>  (7) 
4097

>  <Energy>  (7) 
91.485323

>  <exports>  (7) 
['/opt/xchem-fragalysis-2/maxwin/BulkDock/OUTPUTS/openbind_a71ev2a_c1_knitwork_pure_165VWF8.sdf', '/opt/xchem-fragalysis-2/maxwin/BulkDock/OUTPUTS/openbind_a71ev2a_c1_knitwork_pure_1B07PTU.sdf', '/opt/xchem-fragalysis-2/maxwin/BulkDock/OUTPUTS/openbind_a71ev2a_c1_knitwork_pure_1B07UWE.sdf', '/opt/xchem-fragalysis-2/maxwin/openbind-hippo/a71ev2a/openbind_a71ev2a_c1_scaffold_products.sdf', '/opt/xchem-fragalysis-2/maxwin/openbind-hippo/a71ev2a/cycle_01/bulkdock/openbind_a71ev2a_c1_scaffold_products.sdf', '/opt/xchem-fragalysis-2/maxwin/openbind-hippo/a71ev2a/cycle_01/bulkdock/openbind_a71ev2a_c1_scaffolds.sdf']

>  <fragmenstein_runtime>  (7) 
2.914905

$$$$
P4129
     RDKit          3D

 25 27  0  0  0  0  0  0  0  0999 V2000
    0.3303   12.7757   18.1487 C   0  0  0  0  0  0  0  0  0  0  0  0
    1.8050   12.4966   18.4776 C   0  0  0  0  0  0  0  0  0  0  0  0
    1.9568   11.0419   18.9468 C   0  0  0  0  0  0  0  0  0  0  0  0
    2.6694   12.7400   17.2411 C   0  0  0  0  0  0  0  0  0  0  0  0
    2.2811   13.4079   19.5515 C   0  0  0  0  0  0  0  0  0  0  0  0
    2.0134   14.6815   19.9860 C   0  0  0  0  0  0  0  0  0  0  0  0
    2.9548   15.0713   20.9252 N   0  0  0  0  0  0  0  0  0  0  0  0
    3.7046   13.9833   21.0642 C   0  0  0  0  0  0  0  0  0  0  0  0
    5.0435   13.8317   21.6237 C   0  0  0  0  0  0  0  0  0  0  0  0
    5.5540   12.7970   21.5233 O   0  0  0  0  0  0  0  0  0  0  0  0
    5.5773   15.1439   22.1713 N   0  0  0  0  0  0  0  0  0  0  0  0
    6.8967   15.4996   22.6324 C   0  0  2  0  0  0  0  0  0  0  0  0
    7.8525   14.9149   21.5463 C   0  0  0  0  0  0  0  0  0  0  0  0
    8.8879   15.8145   21.1683 O   0  0  0  0  0  0  0  0  0  0  0  0
    7.2096   15.0664   24.0899 C   0  0  0  0  0  0  0  0  0  0  0  0
    8.3792   14.1297   24.2279 C   0  0  0  0  0  0  0  0  0  0  0  0
    9.6764   14.2501   23.7478 C   0  0  0  0  0  0  0  0  0  0  0  0
   10.1967   12.9900   23.6180 N   0  0  0  0  0  0  0  0  0  0  0  0
    9.3185   12.0930   24.1578 C   0  0  0  0  0  0  0  0  0  0  0  0
    9.3515   10.7122   24.1568 C   0  0  0  0  0  0  0  0  0  0  0  0
    8.3836   10.0952   24.9346 C   0  0  0  0  0  0  0  0  0  0  0  0
    7.3958   10.7868   25.6268 C   0  0  0  0  0  0  0  0  0  0  0  0
    7.2923   12.1547   25.4804 C   0  0  0  0  0  0  0  0  0  0  0  0
    8.2743   12.8147   24.7312 C   0  0  0  0  0  0  0  0  0  0  0  0
    3.3141   12.9393   20.2842 O   0  0  0  0  0  0  0  0  0  0  0  0
  1  2  1  0
  2  3  1  0
  2  4  1  0
  2  5  1  0
  5  6  2  0
  6  7  1  0
  7  8  2  0
  8  9  1  0
  9 10  2  0
  9 11  1  0
 11 12  1  0
 12 13  1  6
 13 14  1  0
 12 15  1  0
 15 16  1  0
 16 17  2  0
 17 18  1  0
 18 19  1  0
 19 20  2  0
 20 21  1  0
 21 22  2  0
 22 23  1  0
 23 24  2  0
  8 25  1  0
 25  5  1  0
 24 16  1  0
 24 19  1  0
M  END
>  <ref_pdb>  (8) 
A3623a

>  <subsites>  (8) 
1 - Active Site

>  <HIPPO Compound ID>  (8) 
132547

>  <energy_score>  (8) 
-2.599994

>  <fragmenstein_mode>  (8) 
expansion

>  <scratch_subdir>  (8) 
/opt/xchem-fragalysis-2/maxwin/BulkDock/SCRATCH/511217/C132547-P200

>  <smiles>  (8) 
CC(C)(C)c1cnc(C(=O)N[C@H](CO)Cc2c[nH]c3ccccc23)o1

>  <alias>  (8) 
None

>  <ref_mols>  (8) 
A3623a,A3568a

>  <inspiration_score>  (8) 
None

>  <tags>  (8) 
BulkDock Fragalysis export,fragmenstein_placed,openbind_a71ev2a_c1_scaffolds,openbind_a71ev2a_c1_knitwork_pure

>  <fragmenstein_outcome>  (8) 
acceptable

>  <fragmenstein_error>  (8) 


>  <distance_score>  (8) 
0.931227

>  <inchikey>  (8) 
KBKFCGYHNXKBGD-UHFFFAOYSA-N

>  <name>  (8) 
P4129

>  <HIPPO Pose ID>  (8) 
4129

>  <Energy>  (8) 
137.611901

>  <exports>  (8) 
['/opt/xchem-fragalysis-2/maxwin/BulkDock/OUTPUTS/openbind_a71ev2a_c1_knitwork_pure_165VWF8.sdf', '/opt/xchem-fragalysis-2/maxwin/BulkDock/OUTPUTS/openbind_a71ev2a_c1_knitwork_pure_1B07PTU.sdf', '/opt/xchem-fragalysis-2/maxwin/BulkDock/OUTPUTS/openbind_a71ev2a_c1_knitwork_pure_1B07UWE.sdf', '/opt/xchem-fragalysis-2/maxwin/openbind-hippo/a71ev2a/openbind_a71ev2a_c1_scaffold_products.sdf', '/opt/xchem-fragalysis-2/maxwin/openbind-hippo/a71ev2a/cycle_01/bulkdock/openbind_a71ev2a_c1_scaffold_products.sdf', '/opt/xchem-fragalysis-2/maxwin/openbind-hippo/a71ev2a/cycle_01/bulkdock/openbind_a71ev2a_c1_scaffolds.sdf']

>  <fragmenstein_runtime>  (8) 
5.872537

$$$$
P4539
     RDKit          3D

 24 27  0  0  0  0  0  0  0  0999 V2000
   19.2030   12.6094    2.9002 O   0  0  0  0  0  0  0  0  0  0  0  0
   19.5024   13.6850    2.5649 C   0  0  0  0  0  0  0  0  0  0  0  0
   20.8878   14.3551    2.4796 N   0  0  0  0  0  0  0  0  0  0  0  0
   22.1981   13.8157    2.6971 C   0  0  0  0  0  0  0  0  0  0  0  0
   22.7637   13.3671    1.4101 C   0  0  0  0  0  0  0  0  0  0  0  0
   22.2732   13.5649    0.2008 N   0  0  0  0  0  0  0  0  0  0  0  0
   23.1281   12.9882   -0.7077 N   0  0  0  0  0  0  0  0  0  0  0  0
   24.1315   12.4670   -0.0385 C   0  0  0  0  0  0  0  0  0  0  0  0
   23.9484   12.6976    1.2963 N   0  0  0  0  0  0  0  0  0  0  0  0
   24.9193   12.3960    2.3262 C   0  0  0  0  0  0  0  0  0  0  0  0
   26.0122   11.4407    1.8426 C   0  0  0  0  0  0  0  0  0  0  0  0
   26.4756   11.7950    0.4270 C   0  0  0  0  0  0  0  0  0  0  0  0
   25.3071   11.7300   -0.5594 C   0  0  0  0  0  0  0  0  0  0  0  0
   18.4367   14.6618    2.2258 C   0  0  0  0  0  0  0  0  0  0  0  0
   18.5512   15.8615    1.5548 C   0  0  0  0  0  0  0  0  0  0  0  0
   17.3285   16.4511    1.4923 O   0  0  0  0  0  0  0  0  0  0  0  0
   16.4889   15.5705    2.1205 C   0  0  0  0  0  0  0  0  0  0  0  0
   15.0884   15.9630    2.1932 C   0  0  0  0  0  0  0  0  0  0  0  0
   14.6373   17.2224    1.7792 C   0  0  0  0  0  0  0  0  0  0  0  0
   13.2863   17.5530    1.8775 C   0  0  0  0  0  0  0  0  0  0  0  0
   12.4158   16.6115    2.3975 C   0  0  0  0  0  0  0  0  0  0  0  0
   12.8006   15.3861    2.8169 N   0  0  0  0  0  0  0  0  0  0  0  0
   14.1259   15.0897    2.6902 C   0  0  0  0  0  0  0  0  0  0  0  0
   17.0982   14.4943    2.5791 N   0  0  0  0  0  0  0  0  0  0  0  0
  1  2  2  0
  2  3  1  0
  3  4  1  0
  4  5  1  0
  5  6  2  0
  6  7  1  0
  7  8  2  0
  8  9  1  0
  9 10  1  0
 10 11  1  0
 11 12  1  0
 12 13  1  0
  2 14  1  0
 14 15  2  0
 15 16  1  0
 16 17  1  0
 17 18  1  0
 18 19  2  0
 19 20  1  0
 20 21  2  0
 21 22  1  0
 22 23  2  0
 17 24  2  0
  9  5  1  0
 24 14  1  0
 13  8  1  0
 23 18  1  0
M  END
>  <ref_pdb>  (9) 
A3568a

>  <subsites>  (9) 
1 - Active Site,6 - A0486/A/147/1

>  <HIPPO Compound ID>  (9) 
53753

>  <energy_score>  (9) 
-12.188579

>  <fragmenstein_mode>  (9) 
expansion

>  <scratch_subdir>  (9) 
/opt/xchem-fragalysis-2/maxwin/BulkDock/SCRATCH/511217/C68035-P220

>  <smiles>  (9) 
O=C(NCc1nnc2n1CCCC2)c1coc(-c2cccnc2)n1

>  <alias>  (9) 
None

>  <ref_mols>  (9) 
A0239a,A3568a

>  <inspiration_score>  (9) 
None

>  <tags>  (9) 
BulkDock Fragalysis export,fragmenstein_placed,openbind_a71ev2a_c1_scaffolds,openbind_a71ev2a_c1_knitwork_pure

>  <fragmenstein_outcome>  (9) 
acceptable

>  <fragmenstein_error>  (9) 


>  <distance_score>  (9) 
0.591058

>  <inchikey>  (9) 
MPUTVVNRSHICME-UHFFFAOYSA-N

>  <name>  (9) 
P4539

>  <HIPPO Pose ID>  (9) 
4539

>  <Energy>  (9) 
45.011785

>  <exports>  (9) 
['/opt/xchem-fragalysis-2/maxwin/BulkDock/OUTPUTS/openbind_a71ev2a_c1_knitwork_pure_165VWF8.sdf', '/opt/xchem-fragalysis-2/maxwin/BulkDock/OUTPUTS/openbind_a71ev2a_c1_knitwork_pure_1B07PTU.sdf', '/opt/xchem-fragalysis-2/maxwin/BulkDock/OUTPUTS/openbind_a71ev2a_c1_knitwork_pure_1B07UWE.sdf', '/opt/xchem-fragalysis-2/maxwin/openbind-hippo/a71ev2a/openbind_a71ev2a_c1_scaffold_products.sdf', '/opt/xchem-fragalysis-2/maxwin/openbind-hippo/a71ev2a/cycle_01/bulkdock/openbind_a71ev2a_c1_scaffold_products.sdf', '/opt/xchem-fragalysis-2/maxwin/openbind-hippo/a71ev2a/cycle_01/bulkdock/openbind_a71ev2a_c1_scaffolds.sdf']

>  <fragmenstein_runtime>  (9) 
2.738041

$$$$
P5890
     RDKit          3D

 23 25  0  0  0  0  0  0  0  0999 V2000
    5.2678   14.8626   23.0353 C   0  0  0  0  0  0  0  0  0  0  0  0
    6.6439   15.1702   23.2745 O   0  0  0  0  0  0  0  0  0  0  0  0
    7.5293   14.2469   22.8212 C   0  0  0  0  0  0  0  0  0  0  0  0
    7.2587   13.2275   22.2030 O   0  0  0  0  0  0  0  0  0  0  0  0
    8.9254   14.6132   23.2616 C   0  0  0  0  0  0  0  0  0  0  0  0
    9.4178   13.7577   24.4294 C   0  0  1  0  0  0  0  0  0  0  0  0
    8.4181   13.6186   25.5936 C   0  0  0  0  0  0  0  0  0  0  0  0
    8.0934   12.1825   25.7360 N   0  0  0  0  0  0  0  0  0  0  0  0
    6.5310   11.7730   26.1942 S   0  0  0  0  0  0  0  0  0  0  0  0
    5.5840   12.7528   25.7260 O   0  0  0  0  0  0  0  0  0  0  0  0
    6.3183   10.3619   25.9880 O   0  0  0  0  0  0  0  0  0  0  0  0
    6.5965   12.0028   27.8867 N   0  0  0  0  0  0  0  0  0  0  0  0
    6.6138   13.4045   28.3813 C   0  0  0  0  0  0  0  0  0  0  0  0
    5.3781   13.7359   29.2076 C   0  0  0  0  0  0  0  0  0  0  0  0
    5.2499   12.8203   30.4210 C   0  0  0  0  0  0  0  0  0  0  0  0
    5.7560   11.4089   30.1337 C   0  0  0  0  0  0  0  0  0  0  0  0
    5.6963   11.0858   28.6458 C   0  0  0  0  0  0  0  0  0  0  0  0
    8.8447   11.4704   24.7461 C   0  0  0  0  0  0  0  0  0  0  0  0
    8.9342   10.1130   24.5181 C   0  0  0  0  0  0  0  0  0  0  0  0
    9.9005    9.6155   23.6369 C   0  0  0  0  0  0  0  0  0  0  0  0
   10.7636   10.4841   22.9733 C   0  0  0  0  0  0  0  0  0  0  0  0
   10.6474   11.8570   23.1668 C   0  0  0  0  0  0  0  0  0  0  0  0
    9.7001   12.3329   24.0679 C   0  0  0  0  0  0  0  0  0  0  0  0
  1  2  1  0
  2  3  1  0
  3  4  2  0
  3  5  1  0
  6  5  1  6
  6  7  1  0
  7  8  1  0
  8  9  1  0
  9 10  2  0
  9 11  2  0
  9 12  1  0
 12 13  1  0
 13 14  1  0
 14 15  1  0
 15 16  1  0
 16 17  1  0
  8 18  1  0
 18 19  2  0
 19 20  1  0
 20 21  2  0
 21 22  1  0
 22 23  2  0
 23  6  1  0
 17 12  1  0
 23 18  1  0
M  END
>  <ref_pdb>  (10) 
A1778a

>  <subsites>  (10) 
1 - Active Site

>  <HIPPO Compound ID>  (10) 
53845

>  <energy_score>  (10) 
-52.809916

>  <fragmenstein_mode>  (10) 
expansion

>  <scratch_subdir>  (10) 
/opt/xchem-fragalysis-2/maxwin/BulkDock/SCRATCH/512157/C45834-P124

>  <smiles>  (10) 
COC(=O)C[C@H]1CN(S(=O)(=O)N2CCCCC2)c2ccccc21

>  <alias>  (10) 
None

>  <ref_mols>  (10) 
A3229a,A3616a,A4368a,A4742b,A3207a,A1778a,A3982a

>  <inspiration_score>  (10) 
None

>  <tags>  (10) 
BulkDock Fragalysis export,fragmenstein_placed,openbind_a71ev2a_c1_scaffolds,openbind_a71ev2a_c1_knitwork_pure

>  <fragmenstein_outcome>  (10) 
acceptable

>  <fragmenstein_error>  (10) 


>  <distance_score>  (10) 
0.847364

>  <inchikey>  (10) 
IWAUSDKULMXZBG-UHFFFAOYSA-N

>  <name>  (10) 
P5890

>  <HIPPO Pose ID>  (10) 
5890

>  <Energy>  (10) 
-109.367701

>  <exports>  (10) 
['/opt/xchem-fragalysis-2/maxwin/BulkDock/OUTPUTS/openbind_a71ev2a_c1_knitwork_pure_165VWF8.sdf', '/opt/xchem-fragalysis-2/maxwin/BulkDock/OUTPUTS/openbind_a71ev2a_c1_knitwork_pure_1B07PTU.sdf', '/opt/xchem-fragalysis-2/maxwin/BulkDock/OUTPUTS/openbind_a71ev2a_c1_knitwork_pure_1B07UWE.sdf', '/opt/xchem-fragalysis-2/maxwin/openbind-hippo/a71ev2a/openbind_a71ev2a_c1_scaffold_products.sdf', '/opt/xchem-fragalysis-2/maxwin/openbind-hippo/a71ev2a/cycle_01/bulkdock/openbind_a71ev2a_c1_scaffold_products.sdf', '/opt/xchem-fragalysis-2/maxwin/openbind-hippo/a71ev2a/cycle_01/bulkdock/openbind_a71ev2a_c1_scaffolds.sdf']

>  <fragmenstein_runtime>  (10) 
3.813177

$$$$
P6803
     RDKit          3D

 17 19  0  0  0  0  0  0  0  0999 V2000
    9.5629   13.7560   25.3345 O   0  0  0  0  0  0  0  0  0  0  0  0
    8.6291   13.4109   24.6156 C   0  0  0  0  0  0  0  0  0  0  0  0
    8.3012   13.9288   23.2207 C   0  0  0  0  0  0  0  0  0  0  0  0
    9.3273   14.8428   22.7108 N   0  0  0  0  0  0  0  0  0  0  0  0
    8.9655   15.3811   21.3964 C   0  0  0  0  0  0  0  0  0  0  0  0
   10.2636   15.9979   20.9140 C   0  0  0  0  0  0  0  0  0  0  0  0
   11.3517   15.1178   21.5113 C   0  0  0  0  0  0  0  0  0  0  0  0
   10.6415   14.2219   22.5198 C   0  0  0  0  0  0  0  0  0  0  0  0
    7.7202   12.3802   25.1430 C   0  0  0  0  0  0  0  0  0  0  0  0
    7.8996   11.0449   24.7505 C   0  0  0  0  0  0  0  0  0  0  0  0
    7.1084   10.0445   25.3181 C   0  0  0  0  0  0  0  0  0  0  0  0
    6.1873   10.3947   26.2878 C   0  0  0  0  0  0  0  0  0  0  0  0
    6.0151   11.7291   26.6622 C   0  0  0  0  0  0  0  0  0  0  0  0
    6.7659   12.7429   26.0976 C   0  0  0  0  0  0  0  0  0  0  0  0
    4.9456   11.8126   27.6982 C   0  0  0  0  0  0  0  0  0  0  0  0
    4.8303   10.3244   28.0856 C   0  0  0  0  0  0  0  0  0  0  0  0
    5.2576    9.5440   26.9170 N   0  0  0  0  0  0  0  0  0  0  0  0
  1  2  2  0
  2  3  1  0
  3  4  1  0
  4  5  1  0
  5  6  1  0
  6  7  1  0
  7  8  1  0
  2  9  1  0
  9 10  2  0
 10 11  1  0
 11 12  2  0
 12 13  1  0
 13 14  2  0
 13 15  1  0
 15 16  1  0
 16 17  1  0
  8  4  1  0
 14  9  1  0
 17 12  1  0
M  END
>  <ref_pdb>  (11) 
A3990a

>  <subsites>  (11) 
1 - Active Site

>  <HIPPO Compound ID>  (11) 
50771

>  <energy_score>  (11) 
-25.10845

>  <fragmenstein_mode>  (11) 
expansion

>  <scratch_subdir>  (11) 
/opt/xchem-fragalysis-2/maxwin/BulkDock/SCRATCH/512157/C69074-P259

>  <smiles>  (11) 
O=C(CN1CCCC1)c1ccc2c(c1)CCN2

>  <alias>  (11) 
None

>  <ref_mols>  (11) 
A3990a,A1778a

>  <inspiration_score>  (11) 
None

>  <tags>  (11) 
BulkDock Fragalysis export,fragmenstein_placed,openbind_a71ev2a_c1_scaffolds,openbind_a71ev2a_c1_knitwork_pure

>  <fragmenstein_outcome>  (11) 
acceptable

>  <fragmenstein_error>  (11) 


>  <distance_score>  (11) 
0.774669

>  <inchikey>  (11) 
DERWPRAMEWIASL-UHFFFAOYSA-N

>  <name>  (11) 
P6803

>  <HIPPO Pose ID>  (11) 
6803

>  <Energy>  (11) 
82.572867

>  <exports>  (11) 
['/opt/xchem-fragalysis-2/maxwin/BulkDock/OUTPUTS/openbind_a71ev2a_c1_knitwork_pure_165VWF8.sdf', '/opt/xchem-fragalysis-2/maxwin/BulkDock/OUTPUTS/openbind_a71ev2a_c1_knitwork_pure_1B07PTU.sdf', '/opt/xchem-fragalysis-2/maxwin/BulkDock/OUTPUTS/openbind_a71ev2a_c1_knitwork_pure_1B07UWE.sdf', '/opt/xchem-fragalysis-2/maxwin/openbind-hippo/a71ev2a/openbind_a71ev2a_c1_scaffold_products.sdf', '/opt/xchem-fragalysis-2/maxwin/openbind-hippo/a71ev2a/cycle_01/bulkdock/openbind_a71ev2a_c1_scaffold_products.sdf', '/opt/xchem-fragalysis-2/maxwin/openbind-hippo/a71ev2a/cycle_01/bulkdock/openbind_a71ev2a_c1_scaffolds.sdf']

>  <fragmenstein_runtime>  (11) 
4.896463

$$$$
P7453
     RDKit          3D

 22 23  0  0  0  0  0  0  0  0999 V2000
    6.3866   15.3428   22.4804 C   0  0  0  0  0  0  0  0  0  0  0  0
    6.7581   15.3599   23.9545 C   0  0  0  0  0  0  0  0  0  0  0  0
    7.7881   14.4070   24.3858 N   0  0  0  0  0  0  0  0  0  0  0  0
    9.1568   14.7007   23.9254 C   0  0  0  0  0  0  0  0  0  0  0  0
    9.8041   13.9557   22.7415 C   0  0  1  0  0  0  0  0  0  0  0  0
    8.9059   13.9420   21.6325 O   0  0  0  0  0  0  0  0  0  0  0  0
   11.2016   14.5277   22.4151 C   0  0  0  0  0  0  0  0  0  0  0  0
   11.1782   15.3166   21.2082 N   0  0  0  0  0  0  0  0  0  0  0  0
   11.6489   14.9272   19.9937 C   0  0  0  0  0  0  0  0  0  0  0  0
   11.0188   15.7198   19.0696 C   0  0  0  0  0  0  0  0  0  0  0  0
   10.2324   16.5964   19.8338 C   0  0  0  0  0  0  0  0  0  0  0  0
   10.3078   16.3388   21.1398 N   0  0  0  0  0  0  0  0  0  0  0  0
    7.3435   13.0175   24.4571 C   0  0  2  0  0  0  0  0  0  0  0  0
    6.2663   12.7822   25.5283 C   0  0  0  0  0  0  0  0  0  0  0  0
    6.3961   11.3062   25.9048 C   0  0  0  0  0  0  0  0  0  0  0  0
    7.7532   10.8896   25.5224 N   0  0  0  0  0  0  0  0  0  0  0  0
    7.7674    9.7747   24.5396 C   0  0  0  0  0  0  0  0  0  0  0  0
    8.9428    9.5585   23.5571 C   0  0  0  0  0  0  0  0  0  0  0  0
   10.1441    9.5109   24.1475 F   0  0  0  0  0  0  0  0  0  0  0  0
    8.7928    8.4187   22.8526 F   0  0  0  0  0  0  0  0  0  0  0  0
    8.9847   10.5836   22.6745 F   0  0  0  0  0  0  0  0  0  0  0  0
    8.4037   12.0889   25.0041 C   0  0  0  0  0  0  0  0  0  0  0  0
  1  2  1  0
  2  3  1  0
  3  4  1  0
  4  5  1  0
  5  6  1  6
  5  7  1  0
  7  8  1  0
  8  9  1  0
  9 10  2  0
 10 11  1  0
 11 12  2  0
 13  3  1  1
 13 14  1  0
 14 15  1  0
 15 16  1  0
 16 17  1  0
 17 18  1  0
 18 19  1  0
 18 20  1  0
 18 21  1  0
 16 22  1  0
 12  8  1  0
 22 13  1  0
M  END
>  <ref_pdb>  (12) 
A4418a

>  <subsites>  (12) 
1 - Active Site

>  <HIPPO Compound ID>  (12) 
55108

>  <energy_score>  (12) 
-17.142075

>  <fragmenstein_mode>  (12) 
expansion

>  <scratch_subdir>  (12) 
/opt/xchem-fragalysis-2/maxwin/BulkDock/SCRATCH/512157/C97931-P356

>  <smiles>  (12) 
CCN(C[C@@H](O)Cn1cccn1)[C@@H]1CCN(CC(F)(F)F)C1

>  <alias>  (12) 
None

>  <ref_mols>  (12) 
A4418a,A0556a

>  <inspiration_score>  (12) 
None

>  <tags>  (12) 
BulkDock Fragalysis export,fragmenstein_placed,openbind_a71ev2a_c1_scaffolds,openbind_a71ev2a_c1_knitwork_pure

>  <fragmenstein_outcome>  (12) 
acceptable

>  <fragmenstein_error>  (12) 


>  <distance_score>  (12) 
0.975002

>  <inchikey>  (12) 
GCVSXZYUPXGABM-UHFFFAOYSA-N

>  <name>  (12) 
P7453

>  <HIPPO Pose ID>  (12) 
7453

>  <Energy>  (12) 
155.957615

>  <exports>  (12) 
['/opt/xchem-fragalysis-2/maxwin/BulkDock/OUTPUTS/openbind_a71ev2a_c1_knitwork_pure_165VWF8.sdf', '/opt/xchem-fragalysis-2/maxwin/BulkDock/OUTPUTS/openbind_a71ev2a_c1_knitwork_pure_1B07PTU.sdf', '/opt/xchem-fragalysis-2/maxwin/BulkDock/OUTPUTS/openbind_a71ev2a_c1_knitwork_pure_1B07UWE.sdf', '/opt/xchem-fragalysis-2/maxwin/openbind-hippo/a71ev2a/openbind_a71ev2a_c1_scaffold_products.sdf', '/opt/xchem-fragalysis-2/maxwin/openbind-hippo/a71ev2a/cycle_01/bulkdock/openbind_a71ev2a_c1_scaffold_products.sdf', '/opt/xchem-fragalysis-2/maxwin/openbind-hippo/a71ev2a/cycle_01/bulkdock/openbind_a71ev2a_c1_scaffolds.sdf']

>  <fragmenstein_runtime>  (12) 
3.553256

$$$$
P8090
     RDKit          3D

 22 23  0  0  0  0  0  0  0  0999 V2000
    3.7179   12.2168   27.9688 O   0  0  0  0  0  0  0  0  0  0  0  0
    3.9190   12.7115   26.9341 C   0  0  0  0  0  0  0  0  0  0  0  0
    3.1956   13.8732   26.2248 N   0  0  0  0  0  0  0  0  0  0  0  0
    2.1286   14.7354   26.6836 C   0  0  0  0  0  0  0  0  0  0  0  0
    0.8685   13.9970   27.1352 C   0  0  0  0  0  0  0  0  0  0  0  0
   -0.0235   13.5467   26.0856 N   0  0  0  0  0  0  0  0  0  0  0  0
   -1.3630   13.3037   26.2463 C   0  0  0  0  0  0  0  0  0  0  0  0
   -1.7826   12.7888   25.0427 C   0  0  0  0  0  0  0  0  0  0  0  0
   -0.7306   12.6953   24.1698 N   0  0  0  0  0  0  0  0  0  0  0  0
    0.2885   13.2410   24.7956 C   0  0  0  0  0  0  0  0  0  0  0  0
    5.1008   12.2523   26.1489 C   0  0  0  0  0  0  0  0  0  0  0  0
    5.4260   10.8976   26.0912 C   0  0  0  0  0  0  0  0  0  0  0  0
    6.5672   10.5436   25.3915 C   0  0  0  0  0  0  0  0  0  0  0  0
    7.3848   11.4324   24.7778 N   0  0  0  0  0  0  0  0  0  0  0  0
    7.0390   12.7314   24.8623 C   0  0  0  0  0  0  0  0  0  0  0  0
    7.8216   13.7034   24.2750 O   0  0  0  0  0  0  0  0  0  0  0  0
    8.8866   13.1726   23.4804 C   0  0  0  0  0  0  0  0  0  0  0  0
    9.6739   14.2890   22.8168 C   0  0  0  0  0  0  0  0  0  0  0  0
   10.0865   15.2005   23.7297 F   0  0  0  0  0  0  0  0  0  0  0  0
    8.9498   14.9303   21.8751 F   0  0  0  0  0  0  0  0  0  0  0  0
   10.7805   13.7947   22.2218 F   0  0  0  0  0  0  0  0  0  0  0  0
    5.9327   13.1909   25.5438 C   0  0  0  0  0  0  0  0  0  0  0  0
  1  2  2  0
  2  3  1  0
  3  4  1  0
  4  5  1  0
  5  6  1  0
  6  7  1  0
  7  8  2  0
  8  9  1  0
  9 10  2  0
  2 11  1  0
 11 12  2  0
 12 13  1  0
 13 14  2  0
 14 15  1  0
 15 16  1  0
 16 17  1  0
 17 18  1  0
 18 19  1  0
 18 20  1  0
 18 21  1  0
 15 22  2  0
 10  6  1  0
 22 11  1  0
M  END
>  <ref_pdb>  (13) 
A3618a

>  <subsites>  (13) 
1 - Active Site

>  <HIPPO Compound ID>  (13) 
52055

>  <energy_score>  (13) 
-16.059541

>  <fragmenstein_mode>  (13) 
expansion

>  <scratch_subdir>  (13) 
/opt/xchem-fragalysis-2/maxwin/BulkDock/SCRATCH/512157/C65274-P198

>  <smiles>  (13) 
O=C(NCCn1ccnc1)c1ccnc(OCC(F)(F)F)c1

>  <alias>  (13) 
None

>  <ref_mols>  (13) 
A3371a,A3618a

>  <inspiration_score>  (13) 
None

>  <tags>  (13) 
BulkDock Fragalysis export,fragmenstein_placed,openbind_a71ev2a_c1_scaffolds,openbind_a71ev2a_c1_knitwork_pure

>  <fragmenstein_outcome>  (13) 
acceptable

>  <fragmenstein_error>  (13) 


>  <distance_score>  (13) 
0.968617

>  <inchikey>  (13) 
OOQQOYYILDTRKK-UHFFFAOYSA-N

>  <name>  (13) 
P8090

>  <HIPPO Pose ID>  (13) 
8090

>  <Energy>  (13) 
23.643549

>  <exports>  (13) 
['/opt/xchem-fragalysis-2/maxwin/BulkDock/OUTPUTS/openbind_a71ev2a_c1_knitwork_pure_165VWF8.sdf', '/opt/xchem-fragalysis-2/maxwin/BulkDock/OUTPUTS/openbind_a71ev2a_c1_knitwork_pure_1B07PTU.sdf', '/opt/xchem-fragalysis-2/maxwin/BulkDock/OUTPUTS/openbind_a71ev2a_c1_knitwork_pure_1B07UWE.sdf', '/opt/xchem-fragalysis-2/maxwin/openbind-hippo/a71ev2a/openbind_a71ev2a_c1_scaffold_products.sdf', '/opt/xchem-fragalysis-2/maxwin/openbind-hippo/a71ev2a/cycle_01/bulkdock/openbind_a71ev2a_c1_scaffold_products.sdf', '/opt/xchem-fragalysis-2/maxwin/openbind-hippo/a71ev2a/cycle_01/bulkdock/openbind_a71ev2a_c1_scaffolds.sdf']

>  <fragmenstein_runtime>  (13) 
5.63389

$$$$
P8760
     RDKit          3D

 23 26  0  0  0  0  0  0  0  0999 V2000
   18.9996   -1.3740   22.3339 C   0  0  0  0  0  0  0  0  0  0  0  0
   19.0417   -2.8978   22.1060 C   0  0  2  0  0  0  0  0  0  0  0  0
   19.7799   -3.5019   23.2972 C   0  0  0  0  0  0  0  0  0  0  0  0
   19.0571   -4.0727   24.3517 C   0  0  0  0  0  0  0  0  0  0  0  0
   19.7509   -4.5785   25.4397 C   0  0  0  0  0  0  0  0  0  0  0  0
   21.0960   -4.5577   25.5499 N   0  0  0  0  0  0  0  0  0  0  0  0
   21.7770   -3.9994   24.5255 C   0  0  0  0  0  0  0  0  0  0  0  0
   21.1750   -3.4603   23.4000 C   0  0  0  0  0  0  0  0  0  0  0  0
   19.6579   -3.2512   20.8003 N   0  0  0  0  0  0  0  0  0  0  0  0
   19.6672   -4.7152   20.5354 C   0  0  0  0  0  0  0  0  0  0  0  0
   18.2864   -5.3769   20.3276 C   0  0  0  0  0  0  0  0  0  0  0  0
   17.4606   -4.6547   19.3474 N   0  0  0  0  0  0  0  0  0  0  0  0
   16.3021   -5.2669   18.8426 C   0  0  0  0  0  0  0  0  0  0  0  0
   15.0655   -4.5631   18.7532 C   0  0  0  0  0  0  0  0  0  0  0  0
   13.8906   -5.1091   18.2238 C   0  0  0  0  0  0  0  0  0  0  0  0
   13.8632   -6.4222   17.7722 C   0  0  0  0  0  0  0  0  0  0  0  0
   15.0690   -7.1213   17.8165 C   0  0  0  0  0  0  0  0  0  0  0  0
   15.3713   -8.3968   17.4214 N   0  0  0  0  0  0  0  0  0  0  0  0
   16.6701   -8.7177   17.5224 N   0  0  0  0  0  0  0  0  0  0  0  0
   17.2086   -7.6046   18.0307 C   0  0  0  0  0  0  0  0  0  0  0  0
   16.2607   -6.5838   18.3042 C   0  0  0  0  0  0  0  0  0  0  0  0
   17.4981   -3.1826   19.4431 C   0  0  0  0  0  0  0  0  0  0  0  0
   18.9362   -2.6524   19.6460 C   0  0  0  0  0  0  0  0  0  0  0  0
  2  1  1  1
  2  3  1  0
  3  4  2  0
  4  5  1  0
  5  6  2  0
  6  7  1  0
  7  8  2  0
  2  9  1  0
  9 10  1  0
 10 11  1  0
 11 12  1  0
 12 13  1  0
 13 14  2  0
 14 15  1  0
 15 16  2  0
 16 17  1  0
 17 18  1  0
 18 19  1  0
 19 20  2  0
 20 21  1  0
 12 22  1  0
 22 23  1  0
  8  3  1  0
 23  9  1  0
 21 13  1  0
 21 17  2  0
M  END
>  <ref_pdb>  (14) 
A3181b

>  <subsites>  (14) 
5 - A3181/A/202/1,2 - A3977/A/202/1

>  <HIPPO Compound ID>  (14) 
48060

>  <energy_score>  (14) 
-62.895159

>  <fragmenstein_mode>  (14) 
expansion

>  <scratch_subdir>  (14) 
/opt/xchem-fragalysis-2/maxwin/BulkDock/SCRATCH/512157/C15317-P145

>  <smiles>  (14) 
C[C@H](c1ccncc1)N1CCN(c2cccc3[nH]ncc23)CC1

>  <alias>  (14) 
None

>  <ref_mols>  (14) 
A3181b,A1105b

>  <inspiration_score>  (14) 
None

>  <tags>  (14) 
BulkDock Fragalysis export,fragmenstein_placed,openbind_a71ev2a_c1_scaffolds,openbind_a71ev2a_c1_knitwork_pure

>  <fragmenstein_outcome>  (14) 
acceptable

>  <fragmenstein_error>  (14) 


>  <distance_score>  (14) 
0.930238

>  <inchikey>  (14) 
SADILTYBWIPMCP-UHFFFAOYSA-N

>  <name>  (14) 
P8760

>  <HIPPO Pose ID>  (14) 
8760

>  <Energy>  (14) 
136.000621

>  <exports>  (14) 
['/opt/xchem-fragalysis-2/maxwin/BulkDock/OUTPUTS/openbind_a71ev2a_c1_knitwork_pure_165VWF8.sdf', '/opt/xchem-fragalysis-2/maxwin/BulkDock/OUTPUTS/openbind_a71ev2a_c1_knitwork_pure_1B07PTU.sdf', '/opt/xchem-fragalysis-2/maxwin/BulkDock/OUTPUTS/openbind_a71ev2a_c1_knitwork_pure_1B07UWE.sdf', '/opt/xchem-fragalysis-2/maxwin/openbind-hippo/a71ev2a/openbind_a71ev2a_c1_scaffold_products.sdf', '/opt/xchem-fragalysis-2/maxwin/openbind-hippo/a71ev2a/cycle_01/bulkdock/openbind_a71ev2a_c1_scaffold_products.sdf', '/opt/xchem-fragalysis-2/maxwin/openbind-hippo/a71ev2a/cycle_01/bulkdock/openbind_a71ev2a_c1_scaffolds.sdf']

>  <fragmenstein_runtime>  (14) 
22.202277

$$$$
P8892
     RDKit          3D

 21 23  0  0  0  0  0  0  0  0999 V2000
   12.6242   13.2980   22.6587 C   0  0  0  0  0  0  0  0  0  0  0  0
   11.1861   13.0106   22.6810 N   0  0  0  0  0  0  0  0  0  0  0  0
   10.7102   12.7960   24.0615 C   0  0  0  0  0  0  0  0  0  0  0  0
    9.7541   11.6708   24.1353 C   0  0  0  0  0  0  0  0  0  0  0  0
    9.9228   10.4645   23.6289 N   0  0  0  0  0  0  0  0  0  0  0  0
    8.9618    9.6372   24.1539 N   0  0  0  0  0  0  0  0  0  0  0  0
    8.2172   10.3530   24.9622 C   0  0  0  0  0  0  0  0  0  0  0  0
    7.1280   10.0222   25.8095 C   0  0  0  0  0  0  0  0  0  0  0  0
    6.5397   10.9814   26.5474 C   0  0  0  0  0  0  0  0  0  0  0  0
    6.9871   12.3628   26.4851 C   0  0  0  0  0  0  0  0  0  0  0  0
    8.0239   12.6783   25.6898 C   0  0  0  0  0  0  0  0  0  0  0  0
    8.6398   11.6721   24.9436 N   0  0  0  0  0  0  0  0  0  0  0  0
   10.2898   14.1946   21.8977 S   0  0  0  0  0  0  0  0  0  0  0  0
   10.5612   15.3378   22.7192 O   0  0  0  0  0  0  0  0  0  0  0  0
    8.9187   13.7743   21.7131 O   0  0  0  0  0  0  0  0  0  0  0  0
   10.9132   14.7139   20.3598 C   0  0  0  0  0  0  0  0  0  0  0  0
   11.9480   14.2962   19.5492 C   0  0  0  0  0  0  0  0  0  0  0  0
   12.0430   15.0267   18.4063 N   0  0  0  0  0  0  0  0  0  0  0  0
   11.1241   15.9517   18.5334 C   0  0  0  0  0  0  0  0  0  0  0  0
   10.4485   15.8343   19.7084 N   0  0  0  0  0  0  0  0  0  0  0  0
    9.5233   16.8166   20.2114 C   0  0  0  0  0  0  0  0  0  0  0  0
  1  2  1  0
  2  3  1  0
  3  4  1  0
  4  5  2  0
  5  6  1  0
  6  7  2  0
  7  8  1  0
  8  9  2  0
  9 10  1  0
 10 11  2  0
 11 12  1  0
  2 13  1  0
 13 14  2  0
 13 15  2  0
 13 16  1  0
 16 17  2  0
 17 18  1  0
 18 19  2  0
 19 20  1  0
 20 21  1  0
 12  4  1  0
 20 16  1  0
 12  7  1  0
M  END
>  <ref_pdb>  (15) 
A2972a

>  <subsites>  (15) 
1 - Active Site,2 - A3977/A/202/1

>  <HIPPO Compound ID>  (15) 
52315

>  <energy_score>  (15) 
-30.862594

>  <fragmenstein_mode>  (15) 
expansion

>  <scratch_subdir>  (15) 
/opt/xchem-fragalysis-2/maxwin/BulkDock/SCRATCH/512157/C104771-P137

>  <smiles>  (15) 
CN(Cc1nnc2ccccn12)S(=O)(=O)c1cncn1C

>  <alias>  (15) 
None

>  <ref_mols>  (15) 
A2972a,A1293a

>  <inspiration_score>  (15) 
None

>  <tags>  (15) 
BulkDock Fragalysis export,fragmenstein_placed,openbind_a71ev2a_c1_scaffolds,openbind_a71ev2a_c1_knitwork_pure

>  <fragmenstein_outcome>  (15) 
acceptable

>  <fragmenstein_error>  (15) 


>  <distance_score>  (15) 
0.994028

>  <inchikey>  (15) 
DRFIGHDMHNBPNI-UHFFFAOYSA-N

>  <name>  (15) 
P8892

>  <HIPPO Pose ID>  (15) 
8892

>  <Energy>  (15) 
-53.903697

>  <exports>  (15) 
['/opt/xchem-fragalysis-2/maxwin/BulkDock/OUTPUTS/openbind_a71ev2a_c1_knitwork_pure_165VWF8.sdf', '/opt/xchem-fragalysis-2/maxwin/BulkDock/OUTPUTS/openbind_a71ev2a_c1_knitwork_pure_1B07PTU.sdf', '/opt/xchem-fragalysis-2/maxwin/BulkDock/OUTPUTS/openbind_a71ev2a_c1_knitwork_pure_1B07UWE.sdf', '/opt/xchem-fragalysis-2/maxwin/openbind-hippo/a71ev2a/openbind_a71ev2a_c1_scaffold_products.sdf', '/opt/xchem-fragalysis-2/maxwin/openbind-hippo/a71ev2a/cycle_01/bulkdock/openbind_a71ev2a_c1_scaffold_products.sdf', '/opt/xchem-fragalysis-2/maxwin/openbind-hippo/a71ev2a/cycle_01/bulkdock/openbind_a71ev2a_c1_scaffolds.sdf']

>  <fragmenstein_runtime>  (15) 
4.462331

$$$$
P9109
     RDKit          3D

 14 14  0  0  0  0  0  0  0  0999 V2000
    6.3061   11.5952   26.8686 C   0  0  0  0  0  0  0  0  0  0  0  0
    6.9595   10.6760   26.0014 O   0  0  0  0  0  0  0  0  0  0  0  0
    8.0386   11.2276   25.3442 C   0  0  0  0  0  0  0  0  0  0  0  0
    8.6733   10.3760   24.4696 C   0  0  0  0  0  0  0  0  0  0  0  0
    9.6985   10.8805   23.6909 C   0  0  0  0  0  0  0  0  0  0  0  0
   10.3265   10.1692   22.7185 O   0  0  0  0  0  0  0  0  0  0  0  0
    9.9934    8.8007   22.5588 C   0  0  0  0  0  0  0  0  0  0  0  0
   10.1091   12.2083   23.8542 C   0  0  0  0  0  0  0  0  0  0  0  0
   11.2626   12.7859   23.0703 C   0  0  0  0  0  0  0  0  0  0  0  0
   10.8546   13.9169   22.1515 C   0  0  0  0  0  0  0  0  0  0  0  0
   11.9361   14.2206   21.1491 C   0  0  0  0  0  0  0  0  0  0  0  0
   12.7777   15.0957   21.3212 O   0  0  0  0  0  0  0  0  0  0  0  0
    9.4183   12.9720   24.7910 C   0  0  0  0  0  0  0  0  0  0  0  0
    8.3901   12.5110   25.5405 N   0  0  0  0  0  0  0  0  0  0  0  0
  1  2  1  0
  2  3  1  0
  3  4  2  0
  4  5  1  0
  5  6  1  0
  6  7  1  0
  5  8  2  0
  8  9  1  0
  9 10  1  0
 10 11  1  0
 11 12  2  0
  8 13  1  0
 13 14  2  0
 14  3  1  0
M  END
>  <ref_pdb>  (16) 
A2629a

>  <subsites>  (16) 
1 - Active Site

>  <HIPPO Compound ID>  (16) 
46014

>  <energy_score>  (16) 
-21.696856

>  <fragmenstein_mode>  (16) 
expansion

>  <scratch_subdir>  (16) 
/opt/xchem-fragalysis-2/maxwin/BulkDock/SCRATCH/512157/C72963-P135

>  <smiles>  (16) 
COc1cc(OC)c(CCC=O)cn1

>  <alias>  (16) 
None

>  <ref_mols>  (16) 
A3975a,A2629a

>  <inspiration_score>  (16) 
None

>  <tags>  (16) 
BulkDock Fragalysis export,fragmenstein_placed,openbind_a71ev2a_c1_scaffolds,openbind_a71ev2a_c1_knitwork_pure

>  <fragmenstein_outcome>  (16) 
acceptable

>  <fragmenstein_error>  (16) 


>  <distance_score>  (16) 
0.844823

>  <inchikey>  (16) 
IASQNHULNRESLR-UHFFFAOYSA-N

>  <name>  (16) 
P9109

>  <HIPPO Pose ID>  (16) 
9109

>  <Energy>  (16) 
1.362317

>  <exports>  (16) 
['/opt/xchem-fragalysis-2/maxwin/BulkDock/OUTPUTS/openbind_a71ev2a_c1_knitwork_pure_165VWF8.sdf', '/opt/xchem-fragalysis-2/maxwin/BulkDock/OUTPUTS/openbind_a71ev2a_c1_knitwork_pure_1B07PTU.sdf', '/opt/xchem-fragalysis-2/maxwin/BulkDock/OUTPUTS/openbind_a71ev2a_c1_knitwork_pure_1B07UWE.sdf', '/opt/xchem-fragalysis-2/maxwin/openbind-hippo/a71ev2a/openbind_a71ev2a_c1_scaffold_products.sdf', '/opt/xchem-fragalysis-2/maxwin/openbind-hippo/a71ev2a/cycle_01/bulkdock/openbind_a71ev2a_c1_scaffold_products.sdf', '/opt/xchem-fragalysis-2/maxwin/openbind-hippo/a71ev2a/cycle_01/bulkdock/openbind_a71ev2a_c1_scaffolds.sdf']

>  <fragmenstein_runtime>  (16) 
2.069769

$$$$
P11635
     RDKit          3D

 18 19  0  0  0  0  0  0  0  0999 V2000
    9.4329   15.6277   24.6042 C   0  0  0  0  0  0  0  0  0  0  0  0
    8.7952   14.2917   24.3709 C   0  0  0  0  0  0  0  0  0  0  0  0
    9.5996   13.2845   23.5189 C   0  0  2  0  0  0  0  0  0  0  0  0
    9.6985   13.6236   22.0942 N   0  0  0  0  0  0  0  0  0  0  0  0
   10.4484   14.8196   21.6793 C   0  0  0  0  0  0  0  0  0  0  0  0
   11.9868   14.6898   21.6551 C   0  0  0  0  0  0  0  0  0  0  0  0
   12.6451   15.7926   20.8795 C   0  0  0  0  0  0  0  0  0  0  0  0
   13.5356   16.7782   21.2577 C   0  0  0  0  0  0  0  0  0  0  0  0
   13.8636   17.6054   20.2147 N   0  0  0  0  0  0  0  0  0  0  0  0
   13.2468   17.0878   19.1779 C   0  0  0  0  0  0  0  0  0  0  0  0
   12.5107   15.9896   19.5257 N   0  0  0  0  0  0  0  0  0  0  0  0
   11.7400   15.1999   18.6026 C   0  0  0  0  0  0  0  0  0  0  0  0
    8.9746   11.8788   23.6985 C   0  0  0  0  0  0  0  0  0  0  0  0
    7.8445   11.6166   24.4882 C   0  0  0  0  0  0  0  0  0  0  0  0
    7.4398   10.3089   24.7031 C   0  0  0  0  0  0  0  0  0  0  0  0
    8.0544    9.2395   24.1752 N   0  0  0  0  0  0  0  0  0  0  0  0
    9.1026    9.4859   23.3691 C   0  0  0  0  0  0  0  0  0  0  0  0
    9.5769   10.7652   23.1072 C   0  0  0  0  0  0  0  0  0  0  0  0
  1  2  1  0
  3  2  1  1
  3  4  1  0
  4  5  1  0
  5  6  1  0
  6  7  1  0
  7  8  2  0
  8  9  1  0
  9 10  2  0
 10 11  1  0
 11 12  1  0
  3 13  1  0
 13 14  2  0
 14 15  1  0
 15 16  2  0
 16 17  1  0
 17 18  2  0
 11  7  1  0
 18 13  1  0
M  END
>  <ref_pdb>  (17) 
A3371a

>  <subsites>  (17) 
1 - Active Site

>  <HIPPO Compound ID>  (17) 
53040

>  <energy_score>  (17) 
-17.769521

>  <fragmenstein_mode>  (17) 
expansion

>  <scratch_subdir>  (17) 
/opt/xchem-fragalysis-2/maxwin/BulkDock/SCRATCH/511219/C9335-P174

>  <smiles>  (17) 
CC[C@H](NCCc1cncn1C)c1ccncc1

>  <alias>  (17) 
None

>  <ref_mols>  (17) 
A3207a,A3371a

>  <inspiration_score>  (17) 
None

>  <tags>  (17) 
BulkDock Fragalysis export,fragmenstein_placed,openbind_a71ev2a_c1_scaffolds,openbind_a71ev2a_c1_knitwork_pure

>  <fragmenstein_outcome>  (17) 
acceptable

>  <fragmenstein_error>  (17) 


>  <distance_score>  (17) 
0.914347

>  <inchikey>  (17) 
XDRXTMXRRKPSOB-UHFFFAOYSA-N

>  <name>  (17) 
P11635

>  <HIPPO Pose ID>  (17) 
11635

>  <Energy>  (17) 
45.193357

>  <exports>  (17) 
['/opt/xchem-fragalysis-2/maxwin/BulkDock/OUTPUTS/openbind_a71ev2a_c1_knitwork_pure_165VWF8.sdf', '/opt/xchem-fragalysis-2/maxwin/BulkDock/OUTPUTS/openbind_a71ev2a_c1_knitwork_pure_1B07PTU.sdf', '/opt/xchem-fragalysis-2/maxwin/BulkDock/OUTPUTS/openbind_a71ev2a_c1_knitwork_pure_1B07UWE.sdf', '/opt/xchem-fragalysis-2/maxwin/openbind-hippo/a71ev2a/openbind_a71ev2a_c1_scaffold_products.sdf', '/opt/xchem-fragalysis-2/maxwin/openbind-hippo/a71ev2a/cycle_01/bulkdock/openbind_a71ev2a_c1_scaffold_products.sdf', '/opt/xchem-fragalysis-2/maxwin/openbind-hippo/a71ev2a/cycle_01/bulkdock/openbind_a71ev2a_c1_scaffolds.sdf']

>  <fragmenstein_runtime>  (17) 
2.340175

$$$$
P15274
     RDKit          3D

 19 19  0  0  0  0  0  0  0  0999 V2000
    9.4325    8.7431   23.1002 C   0  0  0  0  0  0  0  0  0  0  0  0
    9.5730   10.1303   23.3384 O   0  0  0  0  0  0  0  0  0  0  0  0
    8.7401   10.7197   24.2427 C   0  0  0  0  0  0  0  0  0  0  0  0
    7.8611   10.0815   25.1020 C   0  0  0  0  0  0  0  0  0  0  0  0
    7.0262   10.8473   25.9135 C   0  0  0  0  0  0  0  0  0  0  0  0
    7.1340   12.2292   25.8535 C   0  0  0  0  0  0  0  0  0  0  0  0
    5.9433   13.2954   26.8574 Br  0  0  0  0  0  0  0  0  0  0  0  0
    8.0307   12.8713   25.0879 N   0  0  0  0  0  0  0  0  0  0  0  0
    8.7816   12.1138   24.2774 C   0  0  0  0  0  0  0  0  0  0  0  0
    9.5466   12.7221   23.3109 N   0  0  0  0  0  0  0  0  0  0  0  0
    9.8891   14.2146   23.0929 C   0  0  0  0  0  0  0  0  0  0  0  0
    9.6395   15.1493   23.7422 O   0  0  0  0  0  0  0  0  0  0  0  0
   10.5650   14.2259   21.7397 C   0  0  0  0  0  0  0  0  0  0  0  0
   10.8126   15.6285   21.2165 C   0  0  1  0  0  0  0  0  0  0  0  0
   12.1857   16.0960   21.6747 C   0  0  0  0  0  0  0  0  0  0  0  0
   10.6282   15.6216   19.7092 C   0  0  0  0  0  0  0  0  0  0  0  0
   11.4775   14.7784   19.0871 F   0  0  0  0  0  0  0  0  0  0  0  0
   10.7722   16.8442   19.1783 F   0  0  0  0  0  0  0  0  0  0  0  0
    9.3711   15.2243   19.4100 F   0  0  0  0  0  0  0  0  0  0  0  0
  1  2  1  0
  2  3  1  0
  3  4  2  0
  4  5  1  0
  5  6  2  0
  6  7  1  0
  6  8  1  0
  8  9  2  0
  9 10  1  0
 10 11  1  0
 11 12  2  0
 11 13  1  0
 13 14  1  0
 14 15  1  6
 14 16  1  0
 16 17  1  0
 16 18  1  0
 16 19  1  0
  9  3  1  0
M  END
>  <ref_pdb>  (18) 
A4274b

>  <subsites>  (18) 
1 - Active Site

>  <HIPPO Compound ID>  (18) 
114736

>  <energy_score>  (18) 
-8.412332

>  <fragmenstein_mode>  (18) 
expansion

>  <scratch_subdir>  (18) 
/opt/xchem-fragalysis-2/maxwin/BulkDock/SCRATCH/512033/C51400-P344

>  <smiles>  (18) 
COc1ccc(Br)nc1NC(=O)C[C@@H](C)C(F)(F)F

>  <alias>  (18) 
None

>  <ref_mols>  (18) 
A4274b,A1445a

>  <inspiration_score>  (18) 
None

>  <tags>  (18) 
BulkDock Fragalysis export,fragmenstein_placed,openbind_a71ev2a_c1_scaffolds,openbind_a71ev2a_c1_knitwork_pure

>  <fragmenstein_outcome>  (18) 
acceptable

>  <fragmenstein_error>  (18) 


>  <distance_score>  (18) 
0.653432

>  <inchikey>  (18) 
PNWBUTYUCZZJJG-UHFFFAOYSA-N

>  <name>  (18) 
P15274

>  <HIPPO Pose ID>  (18) 
15274

>  <Energy>  (18) 
8.633356

>  <exports>  (18) 
['/opt/xchem-fragalysis-2/maxwin/BulkDock/OUTPUTS/openbind_a71ev2a_c1_knitwork_pure_165VWF8.sdf', '/opt/xchem-fragalysis-2/maxwin/BulkDock/OUTPUTS/openbind_a71ev2a_c1_knitwork_pure_1B07PTU.sdf', '/opt/xchem-fragalysis-2/maxwin/BulkDock/OUTPUTS/openbind_a71ev2a_c1_knitwork_pure_1B07UWE.sdf', '/opt/xchem-fragalysis-2/maxwin/openbind-hippo/a71ev2a/openbind_a71ev2a_c1_scaffold_products.sdf', '/opt/xchem-fragalysis-2/maxwin/openbind-hippo/a71ev2a/cycle_01/bulkdock/openbind_a71ev2a_c1_scaffold_products.sdf', '/opt/xchem-fragalysis-2/maxwin/openbind-hippo/a71ev2a/cycle_01/bulkdock/openbind_a71ev2a_c1_scaffolds.sdf']

>  <fragmenstein_runtime>  (18) 
5.17657

$$$$
P15275
     RDKit          3D

 21 21  0  0  0  0  0  0  0  0999 V2000
    9.3183    8.7674   23.3432 C   0  0  0  0  0  0  0  0  0  0  0  0
    9.4145   10.1746   23.4724 O   0  0  0  0  0  0  0  0  0  0  0  0
    8.5979   10.8109   24.3661 C   0  0  0  0  0  0  0  0  0  0  0  0
    7.6235   10.2327   25.1695 C   0  0  0  0  0  0  0  0  0  0  0  0
    6.8313   11.0708   25.9638 C   0  0  0  0  0  0  0  0  0  0  0  0
    5.6933   10.5512   26.6978 N   0  0  0  0  0  0  0  0  0  0  0  0
    5.3520   11.1438   27.7302 O   0  0  0  0  0  0  0  0  0  0  0  0
    5.1417    9.5409   26.2531 O   0  0  0  0  0  0  0  0  0  0  0  0
    7.0844   12.4297   25.9987 C   0  0  0  0  0  0  0  0  0  0  0  0
    8.0606   13.0026   25.2651 N   0  0  0  0  0  0  0  0  0  0  0  0
    8.7498   12.2017   24.4291 C   0  0  0  0  0  0  0  0  0  0  0  0
    9.5401   12.7726   23.4583 N   0  0  0  0  0  0  0  0  0  0  0  0
    9.8637   14.2586   23.1716 C   0  0  0  0  0  0  0  0  0  0  0  0
    9.5732   15.2218   23.7596 O   0  0  0  0  0  0  0  0  0  0  0  0
   10.5911   14.2223   21.8422 C   0  0  0  0  0  0  0  0  0  0  0  0
   10.8381   15.6115   21.2740 C   0  0  1  0  0  0  0  0  0  0  0  0
   12.2204   16.0842   21.6942 C   0  0  0  0  0  0  0  0  0  0  0  0
   10.6249   15.5817   19.7704 C   0  0  0  0  0  0  0  0  0  0  0  0
   11.4578   14.7254   19.1441 F   0  0  0  0  0  0  0  0  0  0  0  0
   10.7686   16.7958   19.2169 F   0  0  0  0  0  0  0  0  0  0  0  0
    9.3596   15.1870   19.5042 F   0  0  0  0  0  0  0  0  0  0  0  0
  1  2  1  0
  2  3  1  0
  3  4  2  0
  4  5  1  0
  5  6  1  0
  6  7  2  0
  6  8  1  0
  5  9  2  0
  9 10  1  0
 10 11  2  0
 11 12  1  0
 12 13  1  0
 13 14  2  0
 13 15  1  0
 15 16  1  0
 16 17  1  6
 16 18  1  0
 18 19  1  0
 18 20  1  0
 18 21  1  0
 11  3  1  0
M  CHG  2   6   1   8  -1
M  END
>  <ref_pdb>  (19) 
A4274b

>  <subsites>  (19) 
1 - Active Site

>  <HIPPO Compound ID>  (19) 
47019

>  <energy_score>  (19) 
-14.009552

>  <fragmenstein_mode>  (19) 
expansion

>  <scratch_subdir>  (19) 
/opt/xchem-fragalysis-2/maxwin/BulkDock/SCRATCH/512033/C51401-P344

>  <smiles>  (19) 
COc1cc([N+](=O)[O-])cnc1NC(=O)C[C@@H](C)C(F)(F)F

>  <alias>  (19) 
None

>  <ref_mols>  (19) 
A4274b,A1445a

>  <inspiration_score>  (19) 
None

>  <tags>  (19) 
BulkDock Fragalysis export,fragmenstein_placed,openbind_a71ev2a_c1_scaffolds,openbind_a71ev2a_c1_knitwork_pure

>  <fragmenstein_outcome>  (19) 
acceptable

>  <fragmenstein_error>  (19) 


>  <distance_score>  (19) 
0.611015

>  <inchikey>  (19) 
BMJHPSVXCNOHQF-UHFFFAOYSA-N

>  <name>  (19) 
P15275

>  <HIPPO Pose ID>  (19) 
15275

>  <Energy>  (19) 
32.857969

>  <exports>  (19) 
['/opt/xchem-fragalysis-2/maxwin/BulkDock/OUTPUTS/openbind_a71ev2a_c1_knitwork_pure_165VWF8.sdf', '/opt/xchem-fragalysis-2/maxwin/BulkDock/OUTPUTS/openbind_a71ev2a_c1_knitwork_pure_1B07PTU.sdf', '/opt/xchem-fragalysis-2/maxwin/BulkDock/OUTPUTS/openbind_a71ev2a_c1_knitwork_pure_1B07UWE.sdf', '/opt/xchem-fragalysis-2/maxwin/openbind-hippo/a71ev2a/openbind_a71ev2a_c1_scaffold_products.sdf', '/opt/xchem-fragalysis-2/maxwin/openbind-hippo/a71ev2a/cycle_01/bulkdock/openbind_a71ev2a_c1_scaffold_products.sdf', '/opt/xchem-fragalysis-2/maxwin/openbind-hippo/a71ev2a/cycle_01/bulkdock/openbind_a71ev2a_c1_scaffolds.sdf']

>  <fragmenstein_runtime>  (19) 
3.996845

$$$$
P15638
     RDKit          3D

 15 17  0  0  0  0  0  0  0  0999 V2000
   12.6441   15.7070   22.9871 O   0  0  0  0  0  0  0  0  0  0  0  0
   11.9078   15.0054   22.2997 C   0  0  0  0  0  0  0  0  0  0  0  0
   11.2906   13.7204   22.8058 C   0  0  0  0  0  0  0  0  0  0  0  0
   10.8885   13.7653   24.2828 C   0  0  0  0  0  0  0  0  0  0  0  0
    9.9718   12.6389   24.7190 C   0  0  0  0  0  0  0  0  0  0  0  0
    9.7745   11.3457   23.9534 C   0  0  0  0  0  0  0  0  0  0  0  0
    8.6533   12.3311   24.0503 C   0  0  0  0  0  0  0  0  0  0  0  0
   10.3462   15.1264   24.6915 C   0  0  0  0  0  0  0  0  0  0  0  0
    9.0663   15.3796   25.4528 C   0  0  0  0  0  0  0  0  0  0  0  0
    9.1395   15.6855   23.9860 C   0  0  0  0  0  0  0  0  0  0  0  0
   11.4942   15.3621   20.9616 C   0  0  0  0  0  0  0  0  0  0  0  0
   10.6244   16.3990   20.7023 C   0  0  0  0  0  0  0  0  0  0  0  0
   10.1427   16.3155   19.0741 S   0  0  0  0  0  0  0  0  0  0  0  0
   11.1905   15.0090   18.8140 C   0  0  0  0  0  0  0  0  0  0  0  0
   11.8158   14.5608   19.8744 N   0  0  0  0  0  0  0  0  0  0  0  0
  1  2  2  0
  2  3  1  0
  3  4  1  0
  4  5  1  0
  5  6  1  0
  6  7  1  0
  4  8  1  0
  8  9  1  0
  9 10  1  0
  2 11  1  0
 11 12  2  0
 12 13  1  0
 13 14  1  0
 14 15  2  0
  7  5  1  0
 10  8  1  0
 15 11  1  0
M  END
>  <ref_pdb>  (20) 
A4445b

>  <subsites>  (20) 
1 - Active Site

>  <HIPPO Compound ID>  (20) 
96278

>  <energy_score>  (20) 
-49.579305

>  <fragmenstein_mode>  (20) 
expansion

>  <scratch_subdir>  (20) 
/opt/xchem-fragalysis-2/maxwin/BulkDock/SCRATCH/511223/C106645-P364

>  <smiles>  (20) 
O=C(CC(C1CC1)C1CC1)c1cscn1

>  <alias>  (20) 
None

>  <ref_mols>  (20) 
A3306a,A4445b

>  <inspiration_score>  (20) 
None

>  <tags>  (20) 
BulkDock Fragalysis export,fragmenstein_placed,openbind_a71ev2a_c1_scaffolds,openbind_a71ev2a_c1_knitwork_pure

>  <fragmenstein_outcome>  (20) 
acceptable

>  <fragmenstein_error>  (20) 


>  <distance_score>  (20) 
0.983219

>  <inchikey>  (20) 
NCVNEKNWZFVLLU-UHFFFAOYSA-N

>  <name>  (20) 
P15638

>  <HIPPO Pose ID>  (20) 
15638

>  <Energy>  (20) 
85.760556

>  <exports>  (20) 
['/opt/xchem-fragalysis-2/maxwin/BulkDock/OUTPUTS/openbind_a71ev2a_c1_knitwork_pure_165VWF8.sdf', '/opt/xchem-fragalysis-2/maxwin/BulkDock/OUTPUTS/openbind_a71ev2a_c1_knitwork_pure_1B07PTU.sdf', '/opt/xchem-fragalysis-2/maxwin/BulkDock/OUTPUTS/openbind_a71ev2a_c1_knitwork_pure_1B07UWE.sdf', '/opt/xchem-fragalysis-2/maxwin/openbind-hippo/a71ev2a/openbind_a71ev2a_c1_scaffold_products.sdf', '/opt/xchem-fragalysis-2/maxwin/openbind-hippo/a71ev2a/cycle_01/bulkdock/openbind_a71ev2a_c1_scaffold_products.sdf', '/opt/xchem-fragalysis-2/maxwin/openbind-hippo/a71ev2a/cycle_01/bulkdock/openbind_a71ev2a_c1_scaffolds.sdf']

>  <fragmenstein_runtime>  (20) 
10.198042

$$$$
P15897
     RDKit          3D

 15 16  0  0  0  0  0  0  0  0999 V2000
   26.7196   23.2751   22.3085 C   0  0  0  0  0  0  0  0  0  0  0  0
   25.4975   22.5183   22.6894 C   0  0  1  0  0  0  0  0  0  0  0  0
   24.3831   22.4201   21.6842 C   0  0  0  0  0  0  0  0  0  0  0  0
   25.0641   21.1578   22.1505 C   0  0  1  0  0  0  0  0  0  0  0  0
   25.7826   20.2830   21.1462 C   0  0  2  0  0  0  0  0  0  0  0  0
   25.8202   18.8522   21.6845 C   0  0  0  0  0  0  0  0  0  0  0  0
   27.1097   20.7669   20.8472 N   0  0  0  0  0  0  0  0  0  0  0  0
   27.6281   21.6228   19.6551 C   0  0  0  0  0  0  0  0  0  0  0  0
   27.0462   22.1290   18.7777 O   0  0  0  0  0  0  0  0  0  0  0  0
   29.1421   21.8197   19.8585 C   0  0  2  0  0  0  0  0  0  0  0  0
   29.5758   23.2187   19.4009 C   0  0  0  0  0  0  0  0  0  0  0  0
   31.0883   23.3828   19.5325 C   0  0  0  0  0  0  0  0  0  0  0  0
   31.8315   22.2523   18.8232 C   0  0  0  0  0  0  0  0  0  0  0  0
   31.4007   20.9386   19.3076 N   0  0  0  0  0  0  0  0  0  0  0  0
   29.9530   20.7650   19.1077 C   0  0  0  0  0  0  0  0  0  0  0  0
  2  1  1  6
  2  3  1  0
  4  3  1  6
  4  5  1  0
  5  6  1  1
  5  7  1  0
  7  8  1  0
  8  9  2  0
 10  8  1  6
 10 11  1  0
 11 12  1  0
 12 13  1  0
 13 14  1  0
 14 15  1  0
  4  2  1  0
 15 10  1  0
M  END
>  <ref_pdb>  (21) 
A3181b

>  <subsites>  (21) 
1 - Active Site,5 - A3181/A/202/1

>  <HIPPO Compound ID>  (21) 
51690

>  <energy_score>  (21) 
-1.337912

>  <fragmenstein_mode>  (21) 
expansion

>  <scratch_subdir>  (21) 
/opt/xchem-fragalysis-2/maxwin/BulkDock/SCRATCH/511223/C51690-P145

>  <smiles>  (21) 
C[C@H](NC(=O)[C@@H]1CCCNC1)[C@@H]1C[C@@H]1C

>  <alias>  (21) 
None

>  <ref_mols>  (21) 
A4214b,A3181b,A1145a

>  <inspiration_score>  (21) 
None

>  <tags>  (21) 
BulkDock Fragalysis export,fragmenstein_placed,openbind_a71ev2a_c1_scaffolds,openbind_a71ev2a_c1_knitwork_pure

>  <fragmenstein_outcome>  (21) 
acceptable

>  <fragmenstein_error>  (21) 


>  <distance_score>  (21) 
0.999899

>  <inchikey>  (21) 
HIPQRAVJSVNPNW-UHFFFAOYSA-N

>  <name>  (21) 
P15897

>  <HIPPO Pose ID>  (21) 
15897

>  <Energy>  (21) 
25.467447

>  <exports>  (21) 
['/opt/xchem-fragalysis-2/maxwin/BulkDock/OUTPUTS/openbind_a71ev2a_c1_knitwork_pure_165VWF8.sdf', '/opt/xchem-fragalysis-2/maxwin/BulkDock/OUTPUTS/openbind_a71ev2a_c1_knitwork_pure_1B07PTU.sdf', '/opt/xchem-fragalysis-2/maxwin/BulkDock/OUTPUTS/openbind_a71ev2a_c1_knitwork_pure_1B07UWE.sdf', '/opt/xchem-fragalysis-2/maxwin/openbind-hippo/a71ev2a/openbind_a71ev2a_c1_scaffold_products.sdf', '/opt/xchem-fragalysis-2/maxwin/openbind-hippo/a71ev2a/cycle_01/bulkdock/openbind_a71ev2a_c1_scaffold_products.sdf', '/opt/xchem-fragalysis-2/maxwin/openbind-hippo/a71ev2a/cycle_01/bulkdock/openbind_a71ev2a_c1_scaffolds.sdf']

>  <fragmenstein_runtime>  (21) 
2.132501

$$$$
P16706
     RDKit          3D

 23 25  0  0  0  0  0  0  0  0999 V2000
    7.7219   14.7147   21.7044 C   0  0  0  0  0  0  0  0  0  0  0  0
    8.8687   14.0500   22.4298 C   0  0  0  0  0  0  0  0  0  0  0  0
   10.3788   14.3156   22.1848 C   0  0  2  0  0  0  0  0  0  0  0  0
   10.9133   14.4020   20.7711 C   0  0  0  0  0  0  0  0  0  0  0  0
   11.1190   15.7196   20.2080 N   0  0  0  0  0  0  0  0  0  0  0  0
   10.8324   15.5961   18.7699 C   0  0  0  0  0  0  0  0  0  0  0  0
    9.3566   15.8380   18.8188 C   0  0  0  0  0  0  0  0  0  0  0  0
    9.2971   17.1097   19.6441 C   0  0  0  0  0  0  0  0  0  0  0  0
   10.2362   16.7690   20.7451 C   0  0  0  0  0  0  0  0  0  0  0  0
   11.1406   13.2147   22.7207 N   0  0  0  0  0  0  0  0  0  0  0  0
   11.0457   12.8967   24.3076 S   0  0  0  0  0  0  0  0  0  0  0  0
   10.8980   14.1016   25.0831 O   0  0  0  0  0  0  0  0  0  0  0  0
   12.1826   12.0338   24.4899 O   0  0  0  0  0  0  0  0  0  0  0  0
    9.5976   11.9423   24.5014 C   0  0  0  0  0  0  0  0  0  0  0  0
    9.3988   10.7227   23.8722 C   0  0  0  0  0  0  0  0  0  0  0  0
    8.1822   10.2408   24.2568 N   0  0  0  0  0  0  0  0  0  0  0  0
    7.5717   11.1295   25.1094 C   0  0  0  0  0  0  0  0  0  0  0  0
    6.3422   11.0253   25.7712 C   0  0  0  0  0  0  0  0  0  0  0  0
    5.9010   12.1073   26.5318 C   0  0  0  0  0  0  0  0  0  0  0  0
    6.6617   13.2642   26.6150 C   0  0  0  0  0  0  0  0  0  0  0  0
    7.8949   13.3443   25.9663 C   0  0  0  0  0  0  0  0  0  0  0  0
    8.5855   14.4847   26.0920 F   0  0  0  0  0  0  0  0  0  0  0  0
    8.3992   12.2538   25.2209 C   0  0  0  0  0  0  0  0  0  0  0  0
  1  2  1  0
  3  2  1  6
  3  4  1  0
  4  5  1  0
  5  6  1  0
  6  7  1  0
  7  8  1  0
  8  9  1  0
  3 10  1  0
 10 11  1  0
 11 12  2  0
 11 13  2  0
 11 14  1  0
 14 15  2  0
 15 16  1  0
 16 17  1  0
 17 18  2  0
 18 19  1  0
 19 20  2  0
 20 21  1  0
 21 22  1  0
 21 23  2  0
  9  5  1  0
 23 14  1  0
 23 17  1  0
M  END
>  <ref_pdb>  (22) 
A3568a

>  <subsites>  (22) 
1 - Active Site

>  <HIPPO Compound ID>  (22) 
46618

>  <energy_score>  (22) 
-1.434273

>  <fragmenstein_mode>  (22) 
expansion

>  <scratch_subdir>  (22) 
/opt/xchem-fragalysis-2/maxwin/BulkDock/SCRATCH/511223/C119628-P220

>  <smiles>  (22) 
CC[C@H](CN1CCCC1)NS(=O)(=O)c1c[nH]c2cccc(F)c12

>  <alias>  (22) 
None

>  <ref_mols>  (22) 
A1140a,A3568a

>  <inspiration_score>  (22) 
None

>  <tags>  (22) 
BulkDock Fragalysis export,fragmenstein_placed,openbind_a71ev2a_c1_scaffolds,openbind_a71ev2a_c1_knitwork_pure

>  <fragmenstein_outcome>  (22) 
acceptable

>  <fragmenstein_error>  (22) 


>  <distance_score>  (22) 
0.622115

>  <inchikey>  (22) 
VSXISTKWWYBVFB-UHFFFAOYSA-N

>  <name>  (22) 
P16706

>  <HIPPO Pose ID>  (22) 
16706

>  <Energy>  (22) 
51.000183

>  <exports>  (22) 
['/opt/xchem-fragalysis-2/maxwin/BulkDock/OUTPUTS/openbind_a71ev2a_c1_knitwork_pure_165VWF8.sdf', '/opt/xchem-fragalysis-2/maxwin/BulkDock/OUTPUTS/openbind_a71ev2a_c1_knitwork_pure_1B07PTU.sdf', '/opt/xchem-fragalysis-2/maxwin/BulkDock/OUTPUTS/openbind_a71ev2a_c1_knitwork_pure_1B07UWE.sdf', '/opt/xchem-fragalysis-2/maxwin/openbind-hippo/a71ev2a/openbind_a71ev2a_c1_scaffold_products.sdf', '/opt/xchem-fragalysis-2/maxwin/openbind-hippo/a71ev2a/cycle_01/bulkdock/openbind_a71ev2a_c1_scaffold_products.sdf', '/opt/xchem-fragalysis-2/maxwin/openbind-hippo/a71ev2a/cycle_01/bulkdock/openbind_a71ev2a_c1_scaffolds.sdf']

>  <fragmenstein_runtime>  (22) 
3.579893

$$$$
P18206
     RDKit          3D

 16 18  0  0  0  0  0  0  0  0999 V2000
   10.5534    8.4296   23.2327 Br  0  0  0  0  0  0  0  0  0  0  0  0
   10.2121   10.1299   23.9217 C   0  0  0  0  0  0  0  0  0  0  0  0
   11.2477   11.0544   23.9107 C   0  0  0  0  0  0  0  0  0  0  0  0
   11.0311   12.3491   24.3338 C   0  0  0  0  0  0  0  0  0  0  0  0
    9.7313   12.7227   24.5721 C   0  0  0  0  0  0  0  0  0  0  0  0
    8.6894   11.7932   24.6362 C   0  0  0  0  0  0  0  0  0  0  0  0
    8.9453   10.4659   24.3789 C   0  0  0  0  0  0  0  0  0  0  0  0
    7.4012   12.4002   24.8243 N   0  0  0  0  0  0  0  0  0  0  0  0
    6.9371   12.3369   26.2366 C   0  0  1  0  0  0  0  0  0  0  0  0
    6.0160   13.5103   26.6366 C   0  0  0  0  0  0  0  0  0  0  0  0
    5.1750   13.2356   27.8903 C   0  0  0  0  0  0  0  0  0  0  0  0
    5.6787   12.0344   28.6819 C   0  0  0  0  0  0  0  0  0  0  0  0
    5.6858   10.8269   27.8661 N   0  0  0  0  0  0  0  0  0  0  0  0
    6.1272   11.0519   26.4850 C   0  0  0  0  0  0  0  0  0  0  0  0
    7.7368   13.7546   24.3012 C   0  0  0  0  0  0  0  0  0  0  0  0
    9.1716   14.0844   24.7341 C   0  0  0  0  0  0  0  0  0  0  0  0
  1  2  1  0
  2  3  2  0
  3  4  1  0
  4  5  2  0
  5  6  1  0
  6  7  2  0
  6  8  1  0
  9  8  1  6
  9 10  1  0
 10 11  1  0
 11 12  1  0
 12 13  1  0
 13 14  1  0
  8 15  1  0
 15 16  1  0
  7  2  1  0
 14  9  1  0
 16  5  1  0
M  END
>  <ref_pdb>  (23) 
A1778a

>  <subsites>  (23) 
1 - Active Site

>  <HIPPO Compound ID>  (23) 
47002

>  <energy_score>  (23) 
-9.937376

>  <fragmenstein_mode>  (23) 
expansion

>  <scratch_subdir>  (23) 
/opt/xchem-fragalysis-2/maxwin/BulkDock/SCRATCH/511224/C45767-P124

>  <smiles>  (23) 
Brc1ccc2c(c1)N([C@H]1CCCNC1)CC2

>  <alias>  (23) 
None

>  <ref_mols>  (23) 
A3858a,A4308a,A3587a,A4943b,A4291a,A1778a

>  <inspiration_score>  (23) 
None

>  <tags>  (23) 
BulkDock Fragalysis export,fragmenstein_placed,openbind_a71ev2a_c1_scaffolds,openbind_a71ev2a_c1_knitwork_pure

>  <fragmenstein_outcome>  (23) 
acceptable

>  <fragmenstein_error>  (23) 


>  <distance_score>  (23) 
0.991669

>  <inchikey>  (23) 
RVJZPQWJVCMQJG-UHFFFAOYSA-N

>  <name>  (23) 
P18206

>  <HIPPO Pose ID>  (23) 
18206

>  <Energy>  (23) 
74.178078

>  <exports>  (23) 
['/opt/xchem-fragalysis-2/maxwin/BulkDock/OUTPUTS/openbind_a71ev2a_c1_knitwork_pure_165VWF8.sdf', '/opt/xchem-fragalysis-2/maxwin/BulkDock/OUTPUTS/openbind_a71ev2a_c1_knitwork_pure_1B07PTU.sdf', '/opt/xchem-fragalysis-2/maxwin/BulkDock/OUTPUTS/openbind_a71ev2a_c1_knitwork_pure_1B07UWE.sdf', '/opt/xchem-fragalysis-2/maxwin/openbind-hippo/a71ev2a/openbind_a71ev2a_c1_scaffold_products.sdf', '/opt/xchem-fragalysis-2/maxwin/openbind-hippo/a71ev2a/cycle_01/bulkdock/openbind_a71ev2a_c1_scaffold_products.sdf', '/opt/xchem-fragalysis-2/maxwin/openbind-hippo/a71ev2a/cycle_01/bulkdock/openbind_a71ev2a_c1_scaffolds.sdf']

>  <fragmenstein_runtime>  (23) 
1.835994

$$$$
P19678
     RDKit          3D

 14 14  0  0  0  0  0  0  0  0999 V2000
    8.2707   14.9932   26.3212 C   0  0  0  0  0  0  0  0  0  0  0  0
    8.2615   14.5101   24.8671 C   0  0  2  0  0  0  0  0  0  0  0  0
    6.9807   14.9883   24.1869 C   0  0  0  0  0  0  0  0  0  0  0  0
    7.1090   14.8637   22.4174 S   0  0  0  0  0  0  0  0  0  0  0  0
    5.7767   15.7664   21.9601 N   0  0  0  0  0  0  0  0  0  0  0  0
    8.2649   15.5959   21.9639 O   0  0  0  0  0  0  0  0  0  0  0  0
    6.8567   13.5102   21.9684 O   0  0  0  0  0  0  0  0  0  0  0  0
    8.4298   13.0617   24.7785 N   0  0  0  0  0  0  0  0  0  0  0  0
    9.3966   12.4385   23.9051 C   0  0  0  0  0  0  0  0  0  0  0  0
    8.8610   11.0290   23.6902 C   0  0  1  0  0  0  0  0  0  0  0  0
    9.8491   10.0275   23.7590 O   0  0  0  0  0  0  0  0  0  0  0  0
    7.8339   10.7889   24.7804 C   0  0  0  0  0  0  0  0  0  0  0  0
    7.5241   12.1559   25.2895 C   0  0  0  0  0  0  0  0  0  0  0  0
    6.6218   12.4227   26.0645 O   0  0  0  0  0  0  0  0  0  0  0  0
  2  1  1  1
  2  3  1  0
  3  4  1  0
  4  5  1  0
  4  6  2  0
  4  7  2  0
  2  8  1  0
  8  9  1  0
  9 10  1  0
 10 11  1  1
 10 12  1  0
 12 13  1  0
 13 14  2  0
 13  8  1  0
M  END
>  <ref_pdb>  (24) 
A3956a

>  <subsites>  (24) 
1 - Active Site

>  <HIPPO Compound ID>  (24) 
75387

>  <energy_score>  (24) 
-39.003793

>  <fragmenstein_mode>  (24) 
expansion

>  <scratch_subdir>  (24) 
/opt/xchem-fragalysis-2/maxwin/BulkDock/SCRATCH/511225/C50753-P248

>  <smiles>  (24) 
C[C@H](CS(N)(=O)=O)N1C[C@@H](O)CC1=O

>  <alias>  (24) 
None

>  <ref_mols>  (24) 
A3956a,A0719a

>  <inspiration_score>  (24) 
None

>  <tags>  (24) 
BulkDock Fragalysis export,fragmenstein_placed,openbind_a71ev2a_c1_scaffolds,openbind_a71ev2a_c1_knitwork_pure

>  <fragmenstein_outcome>  (24) 
acceptable

>  <fragmenstein_error>  (24) 


>  <distance_score>  (24) 
0.936937

>  <inchikey>  (24) 
RVAWSFXUAFVMPF-UHFFFAOYSA-N

>  <name>  (24) 
P19678

>  <HIPPO Pose ID>  (24) 
19678

>  <Energy>  (24) 
-87.297347

>  <exports>  (24) 
['/opt/xchem-fragalysis-2/maxwin/BulkDock/OUTPUTS/openbind_a71ev2a_c1_knitwork_pure_165VWF8.sdf', '/opt/xchem-fragalysis-2/maxwin/BulkDock/OUTPUTS/openbind_a71ev2a_c1_knitwork_pure_1B07PTU.sdf', '/opt/xchem-fragalysis-2/maxwin/BulkDock/OUTPUTS/openbind_a71ev2a_c1_knitwork_pure_1B07UWE.sdf', '/opt/xchem-fragalysis-2/maxwin/openbind-hippo/a71ev2a/openbind_a71ev2a_c1_scaffold_products.sdf', '/opt/xchem-fragalysis-2/maxwin/openbind-hippo/a71ev2a/cycle_01/bulkdock/openbind_a71ev2a_c1_scaffold_products.sdf', '/opt/xchem-fragalysis-2/maxwin/openbind-hippo/a71ev2a/cycle_01/bulkdock/openbind_a71ev2a_c1_scaffolds.sdf']

>  <fragmenstein_runtime>  (24) 
1.316879

$$$$
P19748
     RDKit          3D

 24 26  0  0  0  0  0  0  0  0999 V2000
   11.5401   16.1377    0.5086 C   0  0  0  0  0  0  0  0  0  0  0  0
   11.7950   15.9616    2.0087 C   0  0  2  0  0  0  0  0  0  0  0  0
   10.6253   16.5640    2.8523 C   0  0  0  0  0  0  0  0  0  0  0  0
    9.5393   15.5783    2.9344 N   0  0  0  0  0  0  0  0  0  0  0  0
    8.4890   15.8607    3.9452 C   0  0  0  0  0  0  0  0  0  0  0  0
    7.7931   14.5761    4.3211 C   0  0  0  0  0  0  0  0  0  0  0  0
    7.6143   13.4032    3.5429 C   0  0  0  0  0  0  0  0  0  0  0  0
    7.0236   12.5098    4.3943 C   0  0  0  0  0  0  0  0  0  0  0  0
    6.8186   13.1024    5.5931 O   0  0  0  0  0  0  0  0  0  0  0  0
    7.2691   14.4111    5.5488 N   0  0  0  0  0  0  0  0  0  0  0  0
   13.1712   16.5395    2.4062 C   0  0  0  0  0  0  0  0  0  0  0  0
   14.2596   15.6005    2.1622 N   0  0  0  0  0  0  0  0  0  0  0  0
   15.2351   14.8948    3.1618 C   0  0  0  0  0  0  0  0  0  0  0  0
   15.2581   14.9042    4.3331 O   0  0  0  0  0  0  0  0  0  0  0  0
   16.2182   14.0241    2.3460 C   0  0  0  0  0  0  0  0  0  0  0  0
   17.6597   14.4242    2.4922 C   0  0  0  0  0  0  0  0  0  0  0  0
   18.6058   13.5107    2.7798 N   0  0  0  0  0  0  0  0  0  0  0  0
   19.7594   14.2085    2.7390 N   0  0  0  0  0  0  0  0  0  0  0  0
   19.6071   15.5120    2.3522 C   0  0  0  0  0  0  0  0  0  0  0  0
   20.5443   16.5250    2.1267 C   0  0  0  0  0  0  0  0  0  0  0  0
   20.0483   17.7804    1.7671 C   0  0  0  0  0  0  0  0  0  0  0  0
   18.6778   18.0031    1.6414 C   0  0  0  0  0  0  0  0  0  0  0  0
   17.7582   16.9712    1.8649 C   0  0  0  0  0  0  0  0  0  0  0  0
   18.2358   15.6993    2.2268 C   0  0  0  0  0  0  0  0  0  0  0  0
  2  1  1  6
  2  3  1  0
  3  4  1  0
  4  5  1  0
  5  6  1  0
  6  7  1  0
  7  8  2  0
  8  9  1  0
  9 10  1  0
  2 11  1  0
 11 12  1  0
 12 13  1  0
 13 14  2  0
 13 15  1  0
 15 16  1  0
 16 17  2  0
 17 18  1  0
 18 19  1  0
 19 20  2  0
 20 21  1  0
 21 22  2  0
 22 23  1  0
 23 24  2  0
 10  6  2  0
 24 16  1  0
 24 19  1  0
M  END
>  <ref_pdb>  (25) 
A0486a

>  <subsites>  (25) 
3 - A0541/A/147/1,6 - A0486/A/147/1

>  <HIPPO Compound ID>  (25) 
106576

>  <energy_score>  (25) 
-37.396448

>  <fragmenstein_mode>  (25) 
expansion

>  <scratch_subdir>  (25) 
/opt/xchem-fragalysis-2/maxwin/BulkDock/SCRATCH/511225/C74114-P9

>  <smiles>  (25) 
C[C@H](CNCc1ccon1)CNC(=O)Cc1n[nH]c2ccccc12

>  <alias>  (25) 
None

>  <ref_mols>  (25) 
A0486a,A0541a

>  <inspiration_score>  (25) 
None

>  <tags>  (25) 
BulkDock Fragalysis export,fragmenstein_placed,openbind_a71ev2a_c1_scaffolds,openbind_a71ev2a_c1_knitwork_pure

>  <fragmenstein_outcome>  (25) 
acceptable

>  <fragmenstein_error>  (25) 


>  <distance_score>  (25) 
0.943951

>  <inchikey>  (25) 
FQWFLXFNFAHVSP-UHFFFAOYSA-N

>  <name>  (25) 
P19748

>  <HIPPO Pose ID>  (25) 
19748

>  <Energy>  (25) 
67.301313

>  <exports>  (25) 
['/opt/xchem-fragalysis-2/maxwin/BulkDock/OUTPUTS/openbind_a71ev2a_c1_knitwork_pure_165VWF8.sdf', '/opt/xchem-fragalysis-2/maxwin/BulkDock/OUTPUTS/openbind_a71ev2a_c1_knitwork_pure_1B07PTU.sdf', '/opt/xchem-fragalysis-2/maxwin/BulkDock/OUTPUTS/openbind_a71ev2a_c1_knitwork_pure_1B07UWE.sdf', '/opt/xchem-fragalysis-2/maxwin/openbind-hippo/a71ev2a/openbind_a71ev2a_c1_scaffold_products.sdf', '/opt/xchem-fragalysis-2/maxwin/openbind-hippo/a71ev2a/cycle_01/bulkdock/openbind_a71ev2a_c1_scaffold_products.sdf', '/opt/xchem-fragalysis-2/maxwin/openbind-hippo/a71ev2a/cycle_01/bulkdock/openbind_a71ev2a_c1_scaffolds.sdf']

>  <fragmenstein_runtime>  (25) 
2.071515

$$$$
P19749
     RDKit          3D

 25 27  0  0  0  0  0  0  0  0999 V2000
   11.5896   15.5605    0.3209 C   0  0  0  0  0  0  0  0  0  0  0  0
   11.8321   15.6045    1.8321 C   0  0  2  0  0  0  0  0  0  0  0  0
   10.6421   16.3124    2.5708 C   0  0  0  0  0  0  0  0  0  0  0  0
    9.4470   15.4499    2.6322 N   0  0  0  0  0  0  0  0  0  0  0  0
    8.4907   15.7787    3.7296 C   0  0  0  0  0  0  0  0  0  0  0  0
    7.7407   14.5389    4.1549 C   0  0  0  0  0  0  0  0  0  0  0  0
    7.3073   13.4519    3.3545 C   0  0  0  0  0  0  0  0  0  0  0  0
    6.8167   12.5401    4.2498 C   0  0  0  0  0  0  0  0  0  0  0  0
    6.8939   13.0519    5.5006 O   0  0  0  0  0  0  0  0  0  0  0  0
    7.4417   14.3223    5.4477 N   0  0  0  0  0  0  0  0  0  0  0  0
   13.1941   16.2677    2.1548 C   0  0  0  0  0  0  0  0  0  0  0  0
   14.3414   15.3783    1.9880 N   0  0  0  0  0  0  0  0  0  0  0  0
   15.3285   14.7809    3.0501 C   0  0  0  0  0  0  0  0  0  0  0  0
   15.3185   14.8529    4.2206 O   0  0  0  0  0  0  0  0  0  0  0  0
   16.4154   13.9564    2.3099 C   0  0  0  0  0  0  0  0  0  0  0  0
   17.8149   14.5097    2.4294 C   0  0  0  0  0  0  0  0  0  0  0  0
   18.8714   13.6969    2.6376 N   0  0  0  0  0  0  0  0  0  0  0  0
   19.9472   14.5212    2.5590 N   0  0  0  0  0  0  0  0  0  0  0  0
   21.2833   14.0018    2.7609 C   0  0  0  0  0  0  0  0  0  0  0  0
   19.6269   15.8217    2.2644 C   0  0  0  0  0  0  0  0  0  0  0  0
   20.4198   16.9584    2.0474 C   0  0  0  0  0  0  0  0  0  0  0  0
   19.7660   18.1576    1.7639 C   0  0  0  0  0  0  0  0  0  0  0  0
   18.3771   18.2168    1.7027 C   0  0  0  0  0  0  0  0  0  0  0  0
   17.5999   17.0733    1.9180 C   0  0  0  0  0  0  0  0  0  0  0  0
   18.2364   15.8519    2.2040 C   0  0  0  0  0  0  0  0  0  0  0  0
  2  1  1  6
  2  3  1  0
  3  4  1  0
  4  5  1  0
  5  6  1  0
  6  7  1  0
  7  8  2  0
  8  9  1  0
  9 10  1  0
  2 11  1  0
 11 12  1  0
 12 13  1  0
 13 14  2  0
 13 15  1  0
 15 16  1  0
 16 17  2  0
 17 18  1  0
 18 19  1  0
 18 20  1  0
 20 21  2  0
 21 22  1  0
 22 23  2  0
 23 24  1  0
 24 25  2  0
 10  6  2  0
 25 16  1  0
 25 20  1  0
M  END
>  <ref_pdb>  (26) 
A0486a

>  <subsites>  (26) 
3 - A0541/A/147/1,6 - A0486/A/147/1

>  <HIPPO Compound ID>  (26) 
48061

>  <energy_score>  (26) 
-29.12269

>  <fragmenstein_mode>  (26) 
expansion

>  <scratch_subdir>  (26) 
/opt/xchem-fragalysis-2/maxwin/BulkDock/SCRATCH/511225/C74115-P9

>  <smiles>  (26) 
C[C@H](CNCc1ccon1)CNC(=O)Cc1nn(C)c2ccccc12

>  <alias>  (26) 
None

>  <ref_mols>  (26) 
A0486a,A0541a

>  <inspiration_score>  (26) 
None

>  <tags>  (26) 
BulkDock Fragalysis export,fragmenstein_placed,openbind_a71ev2a_c1_scaffolds,openbind_a71ev2a_c1_knitwork_pure

>  <fragmenstein_outcome>  (26) 
acceptable

>  <fragmenstein_error>  (26) 


>  <distance_score>  (26) 
0.967361

>  <inchikey>  (26) 
ACFDSVWQCUCXCX-UHFFFAOYSA-N

>  <name>  (26) 
P19749

>  <HIPPO Pose ID>  (26) 
19749

>  <Energy>  (26) 
70.074285

>  <exports>  (26) 
['/opt/xchem-fragalysis-2/maxwin/BulkDock/OUTPUTS/openbind_a71ev2a_c1_knitwork_pure_165VWF8.sdf', '/opt/xchem-fragalysis-2/maxwin/BulkDock/OUTPUTS/openbind_a71ev2a_c1_knitwork_pure_1B07PTU.sdf', '/opt/xchem-fragalysis-2/maxwin/BulkDock/OUTPUTS/openbind_a71ev2a_c1_knitwork_pure_1B07UWE.sdf', '/opt/xchem-fragalysis-2/maxwin/openbind-hippo/a71ev2a/openbind_a71ev2a_c1_scaffold_products.sdf', '/opt/xchem-fragalysis-2/maxwin/openbind-hippo/a71ev2a/cycle_01/bulkdock/openbind_a71ev2a_c1_scaffold_products.sdf', '/opt/xchem-fragalysis-2/maxwin/openbind-hippo/a71ev2a/cycle_01/bulkdock/openbind_a71ev2a_c1_scaffolds.sdf']

>  <fragmenstein_runtime>  (26) 
3.070185

$$$$
P23693
     RDKit          3D

 23 24  0  0  0  0  0  0  0  0999 V2000
   -0.0869   12.1260    1.5759 C   0  0  0  0  0  0  0  0  0  0  0  0
    0.4169   10.6909    1.6699 C   0  0  1  0  0  0  0  0  0  0  0  0
    1.9247   10.5602    1.4115 C   0  0  0  0  0  0  0  0  0  0  0  0
    2.7890   11.3136    2.4166 C   0  0  0  0  0  0  0  0  0  0  0  0
    4.1906   11.0605    2.2207 N   0  0  0  0  0  0  0  0  0  0  0  0
    5.4322   11.6503    2.9440 C   0  0  0  0  0  0  0  0  0  0  0  0
    5.5084   12.4865    3.7541 O   0  0  0  0  0  0  0  0  0  0  0  0
    6.6302   10.9175    2.3273 C   0  0  0  0  0  0  0  0  0  0  0  0
    7.9833   11.3279    2.9019 C   0  0  0  0  0  0  0  0  0  0  0  0
    8.4050   12.6937    2.4734 C   0  0  0  0  0  0  0  0  0  0  0  0
    8.1455   13.9312    3.0222 C   0  0  0  0  0  0  0  0  0  0  0  0
    8.8546   14.8384    2.2222 C   0  0  0  0  0  0  0  0  0  0  0  0
    9.5440   14.2289    1.2547 N   0  0  0  0  0  0  0  0  0  0  0  0
    9.2155   12.9319    1.3980 N   0  0  0  0  0  0  0  0  0  0  0  0
    0.0709   10.1055    2.9464 N   0  0  0  0  0  0  0  0  0  0  0  0
   -0.1042    8.6147    3.3602 C   0  0  0  0  0  0  0  0  0  0  0  0
    0.0798    7.6337    2.7520 O   0  0  0  0  0  0  0  0  0  0  0  0
   -0.5380    8.6168    4.8406 C   0  0  2  0  0  0  0  0  0  0  0  0
    0.5999    9.0826    5.7448 C   0  0  0  0  0  0  0  0  0  0  0  0
    0.6681    8.0861    6.7805 N   0  0  0  0  0  0  0  0  0  0  0  0
   -0.0585    6.9704    6.4170 C   0  0  0  0  0  0  0  0  0  0  0  0
    0.0296    5.8690    6.9343 O   0  0  0  0  0  0  0  0  0  0  0  0
   -0.8526    7.2944    5.3397 N   0  0  0  0  0  0  0  0  0  0  0  0
  2  1  1  1
  2  3  1  0
  3  4  1  0
  4  5  1  0
  5  6  1  0
  6  7  2  0
  6  8  1  0
  8  9  1  0
  9 10  1  0
 10 11  2  0
 11 12  1  0
 12 13  2  0
 13 14  1  0
  2 15  1  0
 15 16  1  0
 16 17  2  0
 18 16  1  6
 18 19  1  0
 19 20  1  0
 20 21  1  0
 21 22  2  0
 21 23  1  0
 14 10  1  0
 23 18  1  0
M  END
>  <ref_pdb>  (27) 
A1081b

>  <subsites>  (27) 
3 - A0541/A/147/1,17 - A1081/A/201/1

>  <HIPPO Compound ID>  (27) 
51476

>  <energy_score>  (27) 
-5.698781

>  <fragmenstein_mode>  (27) 
expansion

>  <scratch_subdir>  (27) 
/opt/xchem-fragalysis-2/maxwin/BulkDock/SCRATCH/512165/C39959-P100

>  <smiles>  (27) 
C[C@@H](CCNC(=O)CCc1ccn[nH]1)NC(=O)[C@@H]1CNC(=O)N1

>  <alias>  (27) 
None

>  <ref_mols>  (27) 
A1081b,A0717a

>  <inspiration_score>  (27) 
None

>  <tags>  (27) 
BulkDock Fragalysis export,fragmenstein_placed,openbind_a71ev2a_c1_scaffolds,openbind_a71ev2a_c1_knitwork_pure

>  <fragmenstein_outcome>  (27) 
acceptable

>  <fragmenstein_error>  (27) 


>  <distance_score>  (27) 
0.696167

>  <inchikey>  (27) 
AKYURMVRRSEXJK-UHFFFAOYSA-N

>  <name>  (27) 
P23693

>  <HIPPO Pose ID>  (27) 
23693

>  <Energy>  (27) 
-28.149752

>  <exports>  (27) 
['/opt/xchem-fragalysis-2/maxwin/BulkDock/OUTPUTS/openbind_a71ev2a_c1_knitwork_pure_165VWF8.sdf', '/opt/xchem-fragalysis-2/maxwin/BulkDock/OUTPUTS/openbind_a71ev2a_c1_knitwork_pure_1B07PTU.sdf', '/opt/xchem-fragalysis-2/maxwin/BulkDock/OUTPUTS/openbind_a71ev2a_c1_knitwork_pure_1B07UWE.sdf', '/opt/xchem-fragalysis-2/maxwin/openbind-hippo/a71ev2a/openbind_a71ev2a_c1_scaffold_products.sdf', '/opt/xchem-fragalysis-2/maxwin/openbind-hippo/a71ev2a/cycle_01/bulkdock/openbind_a71ev2a_c1_scaffold_products.sdf', '/opt/xchem-fragalysis-2/maxwin/openbind-hippo/a71ev2a/cycle_01/bulkdock/openbind_a71ev2a_c1_scaffolds.sdf']

>  <fragmenstein_runtime>  (27) 
2.01811

$$$$
P23697
     RDKit          3D

 22 23  0  0  0  0  0  0  0  0999 V2000
    2.6505   12.1730    1.9604 C   0  0  0  0  0  0  0  0  0  0  0  0
    3.5223   10.9780    1.5923 C   0  0  2  0  0  0  0  0  0  0  0  0
    2.7931    9.6237    1.6467 C   0  0  0  0  0  0  0  0  0  0  0  0
    1.8571    9.4295    2.7341 N   0  0  0  0  0  0  0  0  0  0  0  0
    0.9981    8.1877    3.1191 C   0  0  0  0  0  0  0  0  0  0  0  0
    0.8599    7.1640    2.5720 O   0  0  0  0  0  0  0  0  0  0  0  0
    0.1716    8.5424    4.4053 C   0  0  2  0  0  0  0  0  0  0  0  0
    1.0618    9.0387    5.5414 C   0  0  0  0  0  0  0  0  0  0  0  0
    0.8668    8.1172    6.6246 N   0  0  0  0  0  0  0  0  0  0  0  0
    0.0219    7.0895    6.2547 C   0  0  0  0  0  0  0  0  0  0  0  0
   -0.1251    6.0601    6.8956 O   0  0  0  0  0  0  0  0  0  0  0  0
   -0.5523    7.4314    5.0379 N   0  0  0  0  0  0  0  0  0  0  0  0
   -1.4226    6.5396    4.3078 C   0  0  0  0  0  0  0  0  0  0  0  0
    4.7593   10.9920    2.3504 N   0  0  0  0  0  0  0  0  0  0  0  0
    6.2369   10.8984    1.8734 C   0  0  0  0  0  0  0  0  0  0  0  0
    6.6785   10.7185    0.8048 O   0  0  0  0  0  0  0  0  0  0  0  0
    7.1557   11.2016    3.0688 C   0  0  0  0  0  0  0  0  0  0  0  0
    7.8076   12.5317    2.8549 C   0  0  0  0  0  0  0  0  0  0  0  0
    7.7681   13.6990    3.5848 C   0  0  0  0  0  0  0  0  0  0  0  0
    8.5533   14.6082    2.8551 C   0  0  0  0  0  0  0  0  0  0  0  0
    9.0968   14.0566    1.7685 N   0  0  0  0  0  0  0  0  0  0  0  0
    8.6087   12.7993    1.7718 N   0  0  0  0  0  0  0  0  0  0  0  0
  2  1  1  1
  2  3  1  0
  3  4  1  0
  4  5  1  0
  5  6  2  0
  7  5  1  6
  7  8  1  0
  8  9  1  0
  9 10  1  0
 10 11  2  0
 10 12  1  0
 12 13  1  0
  2 14  1  0
 14 15  1  0
 15 16  2  0
 15 17  1  0
 17 18  1  0
 18 19  2  0
 19 20  1  0
 20 21  2  0
 21 22  1  0
 12  7  1  0
 22 18  1  0
M  END
>  <ref_pdb>  (28) 
A1081b

>  <subsites>  (28) 
3 - A0541/A/147/1,17 - A1081/A/201/1

>  <HIPPO Compound ID>  (28) 
53713

>  <energy_score>  (28) 
-4.113927

>  <fragmenstein_mode>  (28) 
expansion

>  <scratch_subdir>  (28) 
/opt/xchem-fragalysis-2/maxwin/BulkDock/SCRATCH/512165/C124666-P100

>  <smiles>  (28) 
C[C@H](CNC(=O)[C@@H]1CNC(=O)N1C)NC(=O)Cc1ccn[nH]1

>  <alias>  (28) 
None

>  <ref_mols>  (28) 
A1081b,A0717a

>  <inspiration_score>  (28) 
None

>  <tags>  (28) 
BulkDock Fragalysis export,fragmenstein_placed,openbind_a71ev2a_c1_scaffolds,openbind_a71ev2a_c1_knitwork_pure

>  <fragmenstein_outcome>  (28) 
acceptable

>  <fragmenstein_error>  (28) 


>  <distance_score>  (28) 
0.726363

>  <inchikey>  (28) 
RJDKANFIVPITIR-UHFFFAOYSA-N

>  <name>  (28) 
P23697

>  <HIPPO Pose ID>  (28) 
23697

>  <Energy>  (28) 
22.043185

>  <exports>  (28) 
['/opt/xchem-fragalysis-2/maxwin/BulkDock/OUTPUTS/openbind_a71ev2a_c1_knitwork_pure_165VWF8.sdf', '/opt/xchem-fragalysis-2/maxwin/BulkDock/OUTPUTS/openbind_a71ev2a_c1_knitwork_pure_1B07PTU.sdf', '/opt/xchem-fragalysis-2/maxwin/BulkDock/OUTPUTS/openbind_a71ev2a_c1_knitwork_pure_1B07UWE.sdf', '/opt/xchem-fragalysis-2/maxwin/openbind-hippo/a71ev2a/openbind_a71ev2a_c1_scaffold_products.sdf', '/opt/xchem-fragalysis-2/maxwin/openbind-hippo/a71ev2a/cycle_01/bulkdock/openbind_a71ev2a_c1_scaffold_products.sdf', '/opt/xchem-fragalysis-2/maxwin/openbind-hippo/a71ev2a/cycle_01/bulkdock/openbind_a71ev2a_c1_scaffolds.sdf']

>  <fragmenstein_runtime>  (28) 
1.946909

$$$$
P23703
     RDKit          3D

 22 24  0  0  0  0  0  0  0  0999 V2000
    2.9149   10.9592    1.6716 C   0  0  0  0  0  0  0  0  0  0  0  0
    3.7095   10.3115    2.8110 C   0  0  1  0  0  0  0  0  0  0  0  0
    3.3387    8.8331    3.0166 C   0  0  0  0  0  0  0  0  0  0  0  0
    2.0669    8.6922    3.7122 N   0  0  0  0  0  0  0  0  0  0  0  0
    0.6111    8.7626    3.1760 C   0  0  0  0  0  0  0  0  0  0  0  0
    0.2087    9.0206    2.1092 O   0  0  0  0  0  0  0  0  0  0  0  0
   -0.3741    8.5112    4.3487 C   0  0  2  0  0  0  0  0  0  0  0  0
   -0.0556    9.3317    5.5998 C   0  0  0  0  0  0  0  0  0  0  0  0
    0.3700    8.3363    6.5569 N   0  0  0  0  0  0  0  0  0  0  0  0
    0.0376    7.0645    6.1406 C   0  0  0  0  0  0  0  0  0  0  0  0
    0.1218    6.0437    6.8012 O   0  0  0  0  0  0  0  0  0  0  0  0
   -0.3727    7.1466    4.8301 N   0  0  0  0  0  0  0  0  0  0  0  0
    5.1344   10.5347    2.5975 N   0  0  0  0  0  0  0  0  0  0  0  0
    5.8416   11.6147    3.0472 C   0  0  0  0  0  0  0  0  0  0  0  0
    6.9865   11.5962    2.2922 C   0  0  0  0  0  0  0  0  0  0  0  0
    8.0093   12.7395    2.2424 C   0  0  0  0  0  0  0  0  0  0  0  0
    7.9799   13.9253    2.9367 C   0  0  0  0  0  0  0  0  0  0  0  0
    9.0453   14.6694    2.4030 C   0  0  0  0  0  0  0  0  0  0  0  0
    9.7505   13.9819    1.5000 N   0  0  0  0  0  0  0  0  0  0  0  0
    9.0930   12.8018    1.4192 N   0  0  0  0  0  0  0  0  0  0  0  0
    6.9955   10.4833    1.5000 N   0  0  0  0  0  0  0  0  0  0  0  0
    5.8441    9.8388    1.6858 N   0  0  0  0  0  0  0  0  0  0  0  0
  2  1  1  6
  2  3  1  0
  3  4  1  0
  4  5  1  0
  5  6  2  0
  7  5  1  6
  7  8  1  0
  8  9  1  0
  9 10  1  0
 10 11  2  0
 10 12  1  0
  2 13  1  0
 13 14  1  0
 14 15  2  0
 15 16  1  0
 16 17  2  0
 17 18  1  0
 18 19  2  0
 19 20  1  0
 15 21  1  0
 21 22  2  0
 12  7  1  0
 22 13  1  0
 20 16  1  0
M  END
>  <ref_pdb>  (29) 
A1081b

>  <subsites>  (29) 
3 - A0541/A/147/1,17 - A1081/A/201/1

>  <HIPPO Compound ID>  (29) 
66331

>  <energy_score>  (29) 
-24.302095

>  <fragmenstein_mode>  (29) 
expansion

>  <scratch_subdir>  (29) 
/opt/xchem-fragalysis-2/maxwin/BulkDock/SCRATCH/512165/C124672-P100

>  <smiles>  (29) 
C[C@@H](CNC(=O)[C@@H]1CNC(=O)N1)n1cc(-c2ccn[nH]2)nn1

>  <alias>  (29) 
None

>  <ref_mols>  (29) 
A1081b,A0717a

>  <inspiration_score>  (29) 
None

>  <tags>  (29) 
BulkDock Fragalysis export,fragmenstein_placed,openbind_a71ev2a_c1_scaffolds,openbind_a71ev2a_c1_knitwork_pure

>  <fragmenstein_outcome>  (29) 
acceptable

>  <fragmenstein_error>  (29) 


>  <distance_score>  (29) 
0.803698

>  <inchikey>  (29) 
IHLYYSVXTFTBPP-UHFFFAOYSA-N

>  <name>  (29) 
P23703

>  <HIPPO Pose ID>  (29) 
23703

>  <Energy>  (29) 
-24.567358

>  <exports>  (29) 
['/opt/xchem-fragalysis-2/maxwin/BulkDock/OUTPUTS/openbind_a71ev2a_c1_knitwork_pure_165VWF8.sdf', '/opt/xchem-fragalysis-2/maxwin/BulkDock/OUTPUTS/openbind_a71ev2a_c1_knitwork_pure_1B07PTU.sdf', '/opt/xchem-fragalysis-2/maxwin/BulkDock/OUTPUTS/openbind_a71ev2a_c1_knitwork_pure_1B07UWE.sdf', '/opt/xchem-fragalysis-2/maxwin/openbind-hippo/a71ev2a/openbind_a71ev2a_c1_scaffold_products.sdf', '/opt/xchem-fragalysis-2/maxwin/openbind-hippo/a71ev2a/cycle_01/bulkdock/openbind_a71ev2a_c1_scaffold_products.sdf', '/opt/xchem-fragalysis-2/maxwin/openbind-hippo/a71ev2a/cycle_01/bulkdock/openbind_a71ev2a_c1_scaffolds.sdf']

>  <fragmenstein_runtime>  (29) 
2.152683

$$$$
P23706
     RDKit          3D

 24 26  0  0  0  0  0  0  0  0999 V2000
    2.3432    6.4631    0.5435 O   0  0  0  0  0  0  0  0  0  0  0  0
    2.3771    7.0410    1.5235 C   0  0  0  0  0  0  0  0  0  0  0  0
    1.2259    7.4924    2.4609 N   0  0  0  0  0  0  0  0  0  0  0  0
   -0.1980    7.2213    2.3976 C   0  0  0  0  0  0  0  0  0  0  0  0
   -0.8267    6.8048    3.7380 C   0  0  0  0  0  0  0  0  0  0  0  0
   -0.4169    7.6540    4.8420 N   0  0  0  0  0  0  0  0  0  0  0  0
   -0.5620    9.0919    4.8338 C   0  0  0  0  0  0  0  0  0  0  0  0
    0.3877    9.4961    5.9438 C   0  0  0  0  0  0  0  0  0  0  0  0
    0.4077    8.3441    6.8087 N   0  0  0  0  0  0  0  0  0  0  0  0
    0.0206    7.2162    6.0907 C   0  0  0  0  0  0  0  0  0  0  0  0
    0.1223    6.0713    6.5009 O   0  0  0  0  0  0  0  0  0  0  0  0
    3.5857    7.6412    2.2927 N   0  0  0  0  0  0  0  0  0  0  0  0
    4.9997    7.5493    2.0270 C   0  0  0  0  0  0  0  0  0  0  0  0
    5.7440    8.8556    2.1446 C   0  0  0  0  0  0  0  0  0  0  0  0
    7.0419    8.8841    2.6844 C   0  0  0  0  0  0  0  0  0  0  0  0
    7.7779   10.0766    2.7450 C   0  0  0  0  0  0  0  0  0  0  0  0
    7.2300   11.2629    2.2560 C   0  0  0  0  0  0  0  0  0  0  0  0
    7.9601   12.5194    2.3114 C   0  0  0  0  0  0  0  0  0  0  0  0
    7.7020   13.6844    3.0032 C   0  0  0  0  0  0  0  0  0  0  0  0
    8.6950   14.5873    2.5880 C   0  0  0  0  0  0  0  0  0  0  0  0
    9.5507   14.0414    1.7199 N   0  0  0  0  0  0  0  0  0  0  0  0
    9.0654   12.7922    1.5486 N   0  0  0  0  0  0  0  0  0  0  0  0
    5.9388   11.2402    1.7119 C   0  0  0  0  0  0  0  0  0  0  0  0
    5.2080   10.0487    1.6461 C   0  0  0  0  0  0  0  0  0  0  0  0
  1  2  2  0
  2  3  1  0
  3  4  1  0
  4  5  1  0
  5  6  1  0
  6  7  1  0
  7  8  1  0
  8  9  1  0
  9 10  1  0
 10 11  2  0
  2 12  1  0
 12 13  1  0
 13 14  1  0
 14 15  2  0
 15 16  1  0
 16 17  2  0
 17 18  1  0
 18 19  2  0
 19 20  1  0
 20 21  2  0
 21 22  1  0
 17 23  1  0
 23 24  2  0
 10  6  1  0
 24 14  1  0
 22 18  1  0
M  END
>  <ref_pdb>  (30) 
A1081b

>  <subsites>  (30) 
3 - A0541/A/147/1,17 - A1081/A/201/1

>  <HIPPO Compound ID>  (30) 
4093

>  <energy_score>  (30) 
-0.279743

>  <fragmenstein_mode>  (30) 
expansion

>  <scratch_subdir>  (30) 
/opt/xchem-fragalysis-2/maxwin/BulkDock/SCRATCH/512165/C124674-P100

>  <smiles>  (30) 
O=C(NCCN1CCNC1=O)NCc1ccc(-c2ccn[nH]2)cc1

>  <alias>  (30) 
None

>  <ref_mols>  (30) 
A1081b,A0717a

>  <inspiration_score>  (30) 
None

>  <tags>  (30) 
BulkDock Fragalysis export,fragmenstein_placed,openbind_a71ev2a_c1_scaffolds,openbind_a71ev2a_c1_knitwork_pure

>  <fragmenstein_outcome>  (30) 
acceptable

>  <fragmenstein_error>  (30) 


>  <distance_score>  (30) 
0.727947

>  <inchikey>  (30) 
OMOCVUPRTIPABZ-UHFFFAOYSA-N

>  <name>  (30) 
P23706

>  <HIPPO Pose ID>  (30) 
23706

>  <Energy>  (30) 
-78.385599

>  <exports>  (30) 
['/opt/xchem-fragalysis-2/maxwin/BulkDock/OUTPUTS/openbind_a71ev2a_c1_knitwork_pure_165VWF8.sdf', '/opt/xchem-fragalysis-2/maxwin/BulkDock/OUTPUTS/openbind_a71ev2a_c1_knitwork_pure_1B07PTU.sdf', '/opt/xchem-fragalysis-2/maxwin/BulkDock/OUTPUTS/openbind_a71ev2a_c1_knitwork_pure_1B07UWE.sdf', '/opt/xchem-fragalysis-2/maxwin/openbind-hippo/a71ev2a/openbind_a71ev2a_c1_scaffold_products.sdf', '/opt/xchem-fragalysis-2/maxwin/openbind-hippo/a71ev2a/cycle_01/bulkdock/openbind_a71ev2a_c1_scaffold_products.sdf', '/opt/xchem-fragalysis-2/maxwin/openbind-hippo/a71ev2a/cycle_01/bulkdock/openbind_a71ev2a_c1_scaffolds.sdf']

>  <fragmenstein_runtime>  (30) 
2.677369

$$$$
P23709
     RDKit          3D

 24 25  0  0  0  0  0  0  0  0999 V2000
    0.5346   14.3191    2.7456 C   0  0  0  0  0  0  0  0  0  0  0  0
    1.4538   13.1217    2.9973 C   0  0  2  0  0  0  0  0  0  0  0  0
    2.8531   13.5729    3.4567 C   0  0  0  0  0  0  0  0  0  0  0  0
    3.6841   14.3520    2.4440 C   0  0  0  0  0  0  0  0  0  0  0  0
    5.0157   14.5588    2.9613 N   0  0  0  0  0  0  0  0  0  0  0  0
    5.9740   15.7721    2.8217 C   0  0  0  0  0  0  0  0  0  0  0  0
    5.8030   16.8189    2.3329 O   0  0  0  0  0  0  0  0  0  0  0  0
    7.2834   15.3962    3.5281 C   0  0  0  0  0  0  0  0  0  0  0  0
    7.9754   14.2987    2.7993 C   0  0  0  0  0  0  0  0  0  0  0  0
    8.0813   12.9502    3.0636 C   0  0  0  0  0  0  0  0  0  0  0  0
    8.8087   12.4288    1.9800 C   0  0  0  0  0  0  0  0  0  0  0  0
    9.1846   13.3774    1.1204 N   0  0  0  0  0  0  0  0  0  0  0  0
    8.6465   14.5005    1.6222 N   0  0  0  0  0  0  0  0  0  0  0  0
    1.5173   12.1967    1.7642 C   0  0  0  0  0  0  0  0  0  0  0  0
    0.3440   11.2165    1.6905 C   0  0  0  0  0  0  0  0  0  0  0  0
    0.4948   10.1352    2.6349 N   0  0  0  0  0  0  0  0  0  0  0  0
   -0.5796    9.2945    3.3911 C   0  0  0  0  0  0  0  0  0  0  0  0
   -1.7453    9.3010    3.3035 O   0  0  0  0  0  0  0  0  0  0  0  0
    0.1990    8.3281    4.3094 C   0  0  1  0  0  0  0  0  0  0  0  0
    0.9273    9.0586    5.4310 C   0  0  0  0  0  0  0  0  0  0  0  0
    0.8613    8.1389    6.5374 N   0  0  0  0  0  0  0  0  0  0  0  0
    0.0172    7.0832    6.2525 C   0  0  0  0  0  0  0  0  0  0  0  0
   -0.1089    6.0721    6.9233 O   0  0  0  0  0  0  0  0  0  0  0  0
   -0.5694    7.3275    5.0237 N   0  0  0  0  0  0  0  0  0  0  0  0
  2  1  1  6
  2  3  1  0
  3  4  1  0
  4  5  1  0
  5  6  1  0
  6  7  2  0
  6  8  1  0
  8  9  1  0
  9 10  2  0
 10 11  1  0
 11 12  2  0
 12 13  1  0
  2 14  1  0
 14 15  1  0
 15 16  1  0
 16 17  1  0
 17 18  2  0
 19 17  1  1
 19 20  1  0
 20 21  1  0
 21 22  1  0
 22 23  2  0
 22 24  1  0
 13  9  1  0
 24 19  1  0
M  END
>  <ref_pdb>  (31) 
A1081b

>  <subsites>  (31) 
3 - A0541/A/147/1,17 - A1081/A/201/1

>  <HIPPO Compound ID>  (31) 
13618

>  <energy_score>  (31) 
-8.861399

>  <fragmenstein_mode>  (31) 
expansion

>  <scratch_subdir>  (31) 
/opt/xchem-fragalysis-2/maxwin/BulkDock/SCRATCH/512165/C124677-P100

>  <smiles>  (31) 
C[C@H](CCNC(=O)Cc1ccn[nH]1)CCNC(=O)[C@H]1CNC(=O)N1

>  <alias>  (31) 
None

>  <ref_mols>  (31) 
A1081b,A0717a

>  <inspiration_score>  (31) 
None

>  <tags>  (31) 
BulkDock Fragalysis export,fragmenstein_placed,openbind_a71ev2a_c1_scaffolds,openbind_a71ev2a_c1_knitwork_pure

>  <fragmenstein_outcome>  (31) 
acceptable

>  <fragmenstein_error>  (31) 


>  <distance_score>  (31) 
0.978584

>  <inchikey>  (31) 
LAWDOCROZLLCBL-UHFFFAOYSA-N

>  <name>  (31) 
P23709

>  <HIPPO Pose ID>  (31) 
23709

>  <Energy>  (31) 
0.085528

>  <exports>  (31) 
['/opt/xchem-fragalysis-2/maxwin/BulkDock/OUTPUTS/openbind_a71ev2a_c1_knitwork_pure_165VWF8.sdf', '/opt/xchem-fragalysis-2/maxwin/BulkDock/OUTPUTS/openbind_a71ev2a_c1_knitwork_pure_1B07PTU.sdf', '/opt/xchem-fragalysis-2/maxwin/BulkDock/OUTPUTS/openbind_a71ev2a_c1_knitwork_pure_1B07UWE.sdf', '/opt/xchem-fragalysis-2/maxwin/openbind-hippo/a71ev2a/openbind_a71ev2a_c1_scaffold_products.sdf', '/opt/xchem-fragalysis-2/maxwin/openbind-hippo/a71ev2a/cycle_01/bulkdock/openbind_a71ev2a_c1_scaffold_products.sdf', '/opt/xchem-fragalysis-2/maxwin/openbind-hippo/a71ev2a/cycle_01/bulkdock/openbind_a71ev2a_c1_scaffolds.sdf']

>  <fragmenstein_runtime>  (31) 
2.281404

$$$$
P23722
     RDKit          3D

 23 24  0  0  0  0  0  0  0  0999 V2000
    1.5379   12.8995    2.8630 C   0  0  0  0  0  0  0  0  0  0  0  0
    2.2181   11.5271    2.8427 C   0  0  1  0  0  0  0  0  0  0  0  0
    3.6746   11.5955    3.3647 C   0  0  0  0  0  0  0  0  0  0  0  0
    4.4573   12.7543    2.9596 N   0  0  0  0  0  0  0  0  0  0  0  0
    4.7578   14.0850    3.7125 C   0  0  0  0  0  0  0  0  0  0  0  0
    4.4860   14.4182    4.8012 O   0  0  0  0  0  0  0  0  0  0  0  0
    5.5381   15.0144    2.7707 C   0  0  0  0  0  0  0  0  0  0  0  0
    7.0046   15.2031    3.1989 C   0  0  0  0  0  0  0  0  0  0  0  0
    7.8603   14.1206    2.6422 C   0  0  0  0  0  0  0  0  0  0  0  0
    7.9502   12.7836    2.9603 C   0  0  0  0  0  0  0  0  0  0  0  0
    8.8452   12.2511    2.0178 C   0  0  0  0  0  0  0  0  0  0  0  0
    9.3395   13.1865    1.2028 N   0  0  0  0  0  0  0  0  0  0  0  0
    8.7323   14.3132    1.6047 N   0  0  0  0  0  0  0  0  0  0  0  0
    1.3973   10.5702    3.5967 N   0  0  0  0  0  0  0  0  0  0  0  0
   -0.1020   10.1808    3.4394 C   0  0  0  0  0  0  0  0  0  0  0  0
   -0.8900   10.5061    2.6363 O   0  0  0  0  0  0  0  0  0  0  0  0
   -0.5700    9.2950    4.6379 C   0  0  2  0  0  0  0  0  0  0  0  0
   -0.1523    9.7871    6.0191 C   0  0  0  0  0  0  0  0  0  0  0  0
    0.2091    8.5890    6.7284 N   0  0  0  0  0  0  0  0  0  0  0  0
    0.0488    7.4579    5.9536 C   0  0  0  0  0  0  0  0  0  0  0  0
    0.1322    6.3166    6.3822 O   0  0  0  0  0  0  0  0  0  0  0  0
   -0.2325    7.8767    4.6507 N   0  0  0  0  0  0  0  0  0  0  0  0
   -0.7762    6.9858    3.6545 C   0  0  0  0  0  0  0  0  0  0  0  0
  2  1  1  1
  2  3  1  0
  3  4  1  0
  4  5  1  0
  5  6  2  0
  5  7  1  0
  7  8  1  0
  8  9  1  0
  9 10  2  0
 10 11  1  0
 11 12  2  0
 12 13  1  0
  2 14  1  0
 14 15  1  0
 15 16  2  0
 17 15  1  6
 17 18  1  0
 18 19  1  0
 19 20  1  0
 20 21  2  0
 20 22  1  0
 22 23  1  0
 13  9  1  0
 22 17  1  0
M  END
>  <ref_pdb>  (32) 
A1081b

>  <subsites>  (32) 
3 - A0541/A/147/1,17 - A1081/A/201/1

>  <HIPPO Compound ID>  (32) 
51896

>  <energy_score>  (32) 
-5.950481

>  <fragmenstein_mode>  (32) 
expansion

>  <scratch_subdir>  (32) 
/opt/xchem-fragalysis-2/maxwin/BulkDock/SCRATCH/512165/C124687-P100

>  <smiles>  (32) 
C[C@@H](CNC(=O)CCc1ccn[nH]1)NC(=O)[C@@H]1CNC(=O)N1C

>  <alias>  (32) 
None

>  <ref_mols>  (32) 
A1081b,A0717a

>  <inspiration_score>  (32) 
None

>  <tags>  (32) 
BulkDock Fragalysis export,fragmenstein_placed,openbind_a71ev2a_c1_scaffolds,openbind_a71ev2a_c1_knitwork_pure

>  <fragmenstein_outcome>  (32) 
acceptable

>  <fragmenstein_error>  (32) 


>  <distance_score>  (32) 
0.994018

>  <inchikey>  (32) 
VPSJRYBKMAUUSC-UHFFFAOYSA-N

>  <name>  (32) 
P23722

>  <HIPPO Pose ID>  (32) 
23722

>  <Energy>  (32) 
1.54755

>  <exports>  (32) 
['/opt/xchem-fragalysis-2/maxwin/BulkDock/OUTPUTS/openbind_a71ev2a_c1_knitwork_pure_165VWF8.sdf', '/opt/xchem-fragalysis-2/maxwin/BulkDock/OUTPUTS/openbind_a71ev2a_c1_knitwork_pure_1B07PTU.sdf', '/opt/xchem-fragalysis-2/maxwin/BulkDock/OUTPUTS/openbind_a71ev2a_c1_knitwork_pure_1B07UWE.sdf', '/opt/xchem-fragalysis-2/maxwin/openbind-hippo/a71ev2a/openbind_a71ev2a_c1_scaffold_products.sdf', '/opt/xchem-fragalysis-2/maxwin/openbind-hippo/a71ev2a/cycle_01/bulkdock/openbind_a71ev2a_c1_scaffold_products.sdf', '/opt/xchem-fragalysis-2/maxwin/openbind-hippo/a71ev2a/cycle_01/bulkdock/openbind_a71ev2a_c1_scaffolds.sdf']

>  <fragmenstein_runtime>  (32) 
2.560835

$$$$
P23724
     RDKit          3D

 23 24  0  0  0  0  0  0  0  0999 V2000
    3.8257   10.9171   -0.4158 C   0  0  0  0  0  0  0  0  0  0  0  0
    2.8472   10.3131    0.5779 C   0  0  0  0  0  0  0  0  0  0  0  0
    3.3426   10.2722    2.0364 C   0  0  2  0  0  0  0  0  0  0  0  0
    4.5927    9.3867    2.2290 C   0  0  0  0  0  0  0  0  0  0  0  0
    5.8504   10.0536    1.9396 N   0  0  0  0  0  0  0  0  0  0  0  0
    7.2989    9.7147    2.3897 C   0  0  0  0  0  0  0  0  0  0  0  0
    7.6910    8.8941    3.1233 O   0  0  0  0  0  0  0  0  0  0  0  0
    8.2498   10.6168    1.5928 C   0  0  0  0  0  0  0  0  0  0  0  0
    8.2954   12.0366    2.0529 C   0  0  0  0  0  0  0  0  0  0  0  0
    7.7656   12.7133    3.1314 C   0  0  0  0  0  0  0  0  0  0  0  0
    8.2316   14.0351    2.9982 C   0  0  0  0  0  0  0  0  0  0  0  0
    9.0135   14.1933    1.9273 N   0  0  0  0  0  0  0  0  0  0  0  0
    9.0318   12.9705    1.3693 N   0  0  0  0  0  0  0  0  0  0  0  0
    2.2290    9.8408    2.8766 N   0  0  0  0  0  0  0  0  0  0  0  0
    1.6035    8.4277    3.0802 C   0  0  0  0  0  0  0  0  0  0  0  0
    1.8364    7.4120    2.5477 O   0  0  0  0  0  0  0  0  0  0  0  0
    0.4429    8.5612    4.1075 C   0  0  2  0  0  0  0  0  0  0  0  0
    0.8391    9.2257    5.4171 C   0  0  0  0  0  0  0  0  0  0  0  0
    0.1046    8.4879    6.4198 N   0  0  0  0  0  0  0  0  0  0  0  0
    0.2548    8.7804    7.8233 C   0  0  0  0  0  0  0  0  0  0  0  0
   -0.1353    7.2042    5.9354 C   0  0  0  0  0  0  0  0  0  0  0  0
   -0.3150    6.1884    6.5873 O   0  0  0  0  0  0  0  0  0  0  0  0
   -0.0719    7.2740    4.5505 N   0  0  0  0  0  0  0  0  0  0  0  0
  1  2  1  0
  3  2  1  6
  3  4  1  0
  4  5  1  0
  5  6  1  0
  6  7  2  0
  6  8  1  0
  8  9  1  0
  9 10  2  0
 10 11  1  0
 11 12  2  0
 12 13  1  0
  3 14  1  0
 14 15  1  0
 15 16  2  0
 17 15  1  6
 17 18  1  0
 18 19  1  0
 19 20  1  0
 19 21  1  0
 21 22  2  0
 21 23  1  0
 13  9  1  0
 23 17  1  0
M  END
>  <ref_pdb>  (33) 
A1081b

>  <subsites>  (33) 
3 - A0541/A/147/1,17 - A1081/A/201/1

>  <HIPPO Compound ID>  (33) 
53762

>  <energy_score>  (33) 
-12.235175

>  <fragmenstein_mode>  (33) 
expansion

>  <scratch_subdir>  (33) 
/opt/xchem-fragalysis-2/maxwin/BulkDock/SCRATCH/512165/C124689-P100

>  <smiles>  (33) 
CC[C@H](CNC(=O)Cc1ccn[nH]1)NC(=O)[C@@H]1CN(C)C(=O)N1

>  <alias>  (33) 
None

>  <ref_mols>  (33) 
A1081b,A0717a

>  <inspiration_score>  (33) 
None

>  <tags>  (33) 
BulkDock Fragalysis export,fragmenstein_placed,openbind_a71ev2a_c1_scaffolds,openbind_a71ev2a_c1_knitwork_pure

>  <fragmenstein_outcome>  (33) 
acceptable

>  <fragmenstein_error>  (33) 


>  <distance_score>  (33) 
0.938625

>  <inchikey>  (33) 
UMSVOSGNJDZBKA-UHFFFAOYSA-N

>  <name>  (33) 
P23724

>  <HIPPO Pose ID>  (33) 
23724

>  <Energy>  (33) 
21.957614

>  <exports>  (33) 
['/opt/xchem-fragalysis-2/maxwin/BulkDock/OUTPUTS/openbind_a71ev2a_c1_knitwork_pure_165VWF8.sdf', '/opt/xchem-fragalysis-2/maxwin/BulkDock/OUTPUTS/openbind_a71ev2a_c1_knitwork_pure_1B07PTU.sdf', '/opt/xchem-fragalysis-2/maxwin/BulkDock/OUTPUTS/openbind_a71ev2a_c1_knitwork_pure_1B07UWE.sdf', '/opt/xchem-fragalysis-2/maxwin/openbind-hippo/a71ev2a/openbind_a71ev2a_c1_scaffold_products.sdf', '/opt/xchem-fragalysis-2/maxwin/openbind-hippo/a71ev2a/cycle_01/bulkdock/openbind_a71ev2a_c1_scaffold_products.sdf', '/opt/xchem-fragalysis-2/maxwin/openbind-hippo/a71ev2a/cycle_01/bulkdock/openbind_a71ev2a_c1_scaffolds.sdf']

>  <fragmenstein_runtime>  (33) 
2.210179

$$$$
P23728
     RDKit          3D

 22 23  0  0  0  0  0  0  0  0999 V2000
    1.9469   10.8550    0.9136 C   0  0  0  0  0  0  0  0  0  0  0  0
    2.5538   10.2210    2.1590 C   0  0  1  0  0  0  0  0  0  0  0  0
    3.5489   11.1653    2.8666 C   0  0  0  0  0  0  0  0  0  0  0  0
    4.9216   10.8349    2.5827 N   0  0  0  0  0  0  0  0  0  0  0  0
    5.8036   11.1722    1.3561 C   0  0  0  0  0  0  0  0  0  0  0  0
    5.5783   11.8341    0.4222 O   0  0  0  0  0  0  0  0  0  0  0  0
    7.1425   10.4592    1.5334 C   0  0  0  0  0  0  0  0  0  0  0  0
    8.0328   11.0481    2.6218 C   0  0  0  0  0  0  0  0  0  0  0  0
    8.3280   12.4968    2.4393 C   0  0  0  0  0  0  0  0  0  0  0  0
    7.9077   13.6019    3.1475 C   0  0  0  0  0  0  0  0  0  0  0  0
    8.5714   14.6867    2.5510 C   0  0  0  0  0  0  0  0  0  0  0  0
    9.3766   14.3052    1.5572 N   0  0  0  0  0  0  0  0  0  0  0  0
    9.1604   12.9796    1.4643 N   0  0  0  0  0  0  0  0  0  0  0  0
    1.5036    9.8088    3.0749 N   0  0  0  0  0  0  0  0  0  0  0  0
    0.9328    8.3945    3.3870 C   0  0  0  0  0  0  0  0  0  0  0  0
    1.1678    7.3587    2.8990 O   0  0  0  0  0  0  0  0  0  0  0  0
   -0.0302    8.5449    4.5935 C   0  0  2  0  0  0  0  0  0  0  0  0
    0.7306    9.0698    5.8070 C   0  0  0  0  0  0  0  0  0  0  0  0
    0.5770    8.0643    6.8195 N   0  0  0  0  0  0  0  0  0  0  0  0
   -0.0371    6.9485    6.2931 C   0  0  0  0  0  0  0  0  0  0  0  0
   -0.0410    5.8471    6.8183 O   0  0  0  0  0  0  0  0  0  0  0  0
   -0.5558    7.2705    5.0549 N   0  0  0  0  0  0  0  0  0  0  0  0
  2  1  1  6
  2  3  1  0
  3  4  1  0
  4  5  1  0
  5  6  2  0
  5  7  1  0
  7  8  1  0
  8  9  1  0
  9 10  2  0
 10 11  1  0
 11 12  2  0
 12 13  1  0
  2 14  1  0
 14 15  1  0
 15 16  2  0
 17 15  1  6
 17 18  1  0
 18 19  1  0
 19 20  1  0
 20 21  2  0
 20 22  1  0
 13  9  1  0
 22 17  1  0
M  END
>  <ref_pdb>  (34) 
A1081b

>  <subsites>  (34) 
3 - A0541/A/147/1,17 - A1081/A/201/1

>  <HIPPO Compound ID>  (34) 
77791

>  <energy_score>  (34) 
-11.781268

>  <fragmenstein_mode>  (34) 
expansion

>  <scratch_subdir>  (34) 
/opt/xchem-fragalysis-2/maxwin/BulkDock/SCRATCH/512165/C124693-P100

>  <smiles>  (34) 
C[C@@H](CNC(=O)CCc1ccn[nH]1)NC(=O)[C@@H]1CNC(=O)N1

>  <alias>  (34) 
None

>  <ref_mols>  (34) 
A1081b,A0717a

>  <inspiration_score>  (34) 
None

>  <tags>  (34) 
BulkDock Fragalysis export,fragmenstein_placed,openbind_a71ev2a_c1_scaffolds,openbind_a71ev2a_c1_knitwork_pure

>  <fragmenstein_outcome>  (34) 
acceptable

>  <fragmenstein_error>  (34) 


>  <distance_score>  (34) 
0.490583

>  <inchikey>  (34) 
DIUMSFGKZNZUAS-UHFFFAOYSA-N

>  <name>  (34) 
P23728

>  <HIPPO Pose ID>  (34) 
23728

>  <Energy>  (34) 
-7.495226

>  <exports>  (34) 
['/opt/xchem-fragalysis-2/maxwin/BulkDock/OUTPUTS/openbind_a71ev2a_c1_knitwork_pure_165VWF8.sdf', '/opt/xchem-fragalysis-2/maxwin/BulkDock/OUTPUTS/openbind_a71ev2a_c1_knitwork_pure_1B07PTU.sdf', '/opt/xchem-fragalysis-2/maxwin/BulkDock/OUTPUTS/openbind_a71ev2a_c1_knitwork_pure_1B07UWE.sdf', '/opt/xchem-fragalysis-2/maxwin/openbind-hippo/a71ev2a/openbind_a71ev2a_c1_scaffold_products.sdf', '/opt/xchem-fragalysis-2/maxwin/openbind-hippo/a71ev2a/cycle_01/bulkdock/openbind_a71ev2a_c1_scaffold_products.sdf', '/opt/xchem-fragalysis-2/maxwin/openbind-hippo/a71ev2a/cycle_01/bulkdock/openbind_a71ev2a_c1_scaffolds.sdf']

>  <fragmenstein_runtime>  (34) 
2.236147

$$$$
P23741
     RDKit          3D

 23 25  0  0  0  0  0  0  0  0999 V2000
    5.5693   13.9526    4.8060 O   0  0  0  0  0  0  0  0  0  0  0  0
    5.9901   13.0476    4.1947 C   0  0  0  0  0  0  0  0  0  0  0  0
    7.4796   12.7212    4.1457 C   0  0  0  0  0  0  0  0  0  0  0  0
    8.1312   13.2460    2.9218 C   0  0  0  0  0  0  0  0  0  0  0  0
    8.7425   12.4959    1.8934 C   0  0  0  0  0  0  0  0  0  0  0  0
    9.2933   13.2688    0.9572 N   0  0  0  0  0  0  0  0  0  0  0  0
    9.0028   14.5156    1.3564 N   0  0  0  0  0  0  0  0  0  0  0  0
    8.3305   14.5575    2.5423 C   0  0  0  0  0  0  0  0  0  0  0  0
    5.2475   11.9311    3.4079 N   0  0  0  0  0  0  0  0  0  0  0  0
    3.8309   11.7533    3.1317 C   0  0  2  0  0  0  0  0  0  0  0  0
    3.4713   10.2441    3.0085 C   0  0  0  0  0  0  0  0  0  0  0  0
    2.4079    9.8082    3.8914 N   0  0  0  0  0  0  0  0  0  0  0  0
    0.9118   10.1937    3.9274 C   0  0  0  0  0  0  0  0  0  0  0  0
    0.2854   10.8632    3.2043 O   0  0  0  0  0  0  0  0  0  0  0  0
    0.2479    9.4986    5.1489 C   0  0  1  0  0  0  0  0  0  0  0  0
   -1.0657    8.8665    4.6705 C   0  0  0  0  0  0  0  0  0  0  0  0
   -1.1269    7.6101    5.3655 N   0  0  0  0  0  0  0  0  0  0  0  0
    0.0291    7.3537    6.0616 C   0  0  0  0  0  0  0  0  0  0  0  0
    0.2192    6.3676    6.7550 O   0  0  0  0  0  0  0  0  0  0  0  0
    0.9129    8.4026    5.8449 N   0  0  0  0  0  0  0  0  0  0  0  0
    3.3975   12.5020    1.8912 C   0  0  0  0  0  0  0  0  0  0  0  0
    3.9611   13.8439    1.4848 C   0  0  0  0  0  0  0  0  0  0  0  0
    4.2716   12.6213    0.6635 C   0  0  0  0  0  0  0  0  0  0  0  0
  1  2  2  0
  2  3  1  0
  3  4  1  0
  4  5  1  0
  5  6  2  0
  6  7  1  0
  7  8  1  0
  2  9  1  0
  9 10  1  0
 10 11  1  6
 11 12  1  0
 12 13  1  0
 13 14  2  0
 15 13  1  6
 15 16  1  0
 16 17  1  0
 17 18  1  0
 18 19  2  0
 18 20  1  0
 10 21  1  0
 21 22  1  0
 22 23  1  0
  8  4  2  0
 20 15  1  0
 23 21  1  0
M  END
>  <ref_pdb>  (35) 
A1081b

>  <subsites>  (35) 
3 - A0541/A/147/1,17 - A1081/A/201/1

>  <HIPPO Compound ID>  (35) 
45975

>  <energy_score>  (35) 
-15.240381

>  <fragmenstein_mode>  (35) 
expansion

>  <scratch_subdir>  (35) 
/opt/xchem-fragalysis-2/maxwin/BulkDock/SCRATCH/512165/C39932-P100

>  <smiles>  (35) 
O=C(Cc1cn[nH]c1)N[C@H](CNC(=O)[C@H]1CNC(=O)N1)C1CC1

>  <alias>  (35) 
None

>  <ref_mols>  (35) 
A1081b,A0717a

>  <inspiration_score>  (35) 
None

>  <tags>  (35) 
BulkDock Fragalysis export,fragmenstein_placed,openbind_a71ev2a_c1_scaffolds,openbind_a71ev2a_c1_knitwork_pure

>  <fragmenstein_outcome>  (35) 
acceptable

>  <fragmenstein_error>  (35) 


>  <distance_score>  (35) 
0.687262

>  <inchikey>  (35) 
CEMUYZQUYWHICQ-UHFFFAOYSA-N

>  <name>  (35) 
P23741

>  <HIPPO Pose ID>  (35) 
23741

>  <Energy>  (35) 
23.788952

>  <exports>  (35) 
['/opt/xchem-fragalysis-2/maxwin/BulkDock/OUTPUTS/openbind_a71ev2a_c1_knitwork_pure_165VWF8.sdf', '/opt/xchem-fragalysis-2/maxwin/BulkDock/OUTPUTS/openbind_a71ev2a_c1_knitwork_pure_1B07PTU.sdf', '/opt/xchem-fragalysis-2/maxwin/BulkDock/OUTPUTS/openbind_a71ev2a_c1_knitwork_pure_1B07UWE.sdf', '/opt/xchem-fragalysis-2/maxwin/openbind-hippo/a71ev2a/openbind_a71ev2a_c1_scaffold_products.sdf', '/opt/xchem-fragalysis-2/maxwin/openbind-hippo/a71ev2a/cycle_01/bulkdock/openbind_a71ev2a_c1_scaffold_products.sdf', '/opt/xchem-fragalysis-2/maxwin/openbind-hippo/a71ev2a/cycle_01/bulkdock/openbind_a71ev2a_c1_scaffolds.sdf']

>  <fragmenstein_runtime>  (35) 
3.096416

$$$$
P26724
     RDKit          3D

 12 12  0  0  0  0  0  0  0  0999 V2000
    9.1051   15.7019   20.9775 C   0  0  0  0  0  0  0  0  0  0  0  0
   10.1250   14.7092   20.8271 O   0  0  0  0  0  0  0  0  0  0  0  0
   11.3462   15.2348   21.1565 C   0  0  0  0  0  0  0  0  0  0  0  0
   11.9348   16.2107   20.3630 C   0  0  0  0  0  0  0  0  0  0  0  0
   13.1072   16.7822   20.8144 C   0  0  0  0  0  0  0  0  0  0  0  0
   13.6832   16.4694   21.9927 N   0  0  0  0  0  0  0  0  0  0  0  0
   13.1261   15.4530   22.6882 C   0  0  0  0  0  0  0  0  0  0  0  0
   11.9834   14.7594   22.3019 C   0  0  0  0  0  0  0  0  0  0  0  0
   11.4841   13.5079   22.9829 C   0  0  1  0  0  0  0  0  0  0  0  0
   12.4792   12.9317   23.9707 C   0  0  0  0  0  0  0  0  0  0  0  0
   10.1398   13.6542   23.6662 C   0  0  0  0  0  0  0  0  0  0  0  0
    9.6178   12.7595   24.3358 O   0  0  0  0  0  0  0  0  0  0  0  0
  1  2  1  0
  2  3  1  0
  3  4  2  0
  4  5  1  0
  5  6  2  0
  6  7  1  0
  7  8  2  0
  8  9  1  0
  9 10  1  1
  9 11  1  0
 11 12  2  0
  8  3  1  0
M  END
>  <ref_pdb>  (36) 
A3564a

>  <subsites>  (36) 
1 - Active Site

>  <HIPPO Compound ID>  (36) 
51448

>  <energy_score>  (36) 
-5.583182

>  <fragmenstein_mode>  (36) 
expansion

>  <scratch_subdir>  (36) 
/opt/xchem-fragalysis-2/maxwin/BulkDock/SCRATCH/511229/C51858-P219

>  <smiles>  (36) 
COc1ccncc1[C@@H](C)C=O

>  <alias>  (36) 
None

>  <ref_mols>  (36) 
A3564a,A4874a

>  <inspiration_score>  (36) 
None

>  <tags>  (36) 
BulkDock Fragalysis export,fragmenstein_placed,openbind_a71ev2a_c1_scaffolds,openbind_a71ev2a_c1_knitwork_pure

>  <fragmenstein_outcome>  (36) 
acceptable

>  <fragmenstein_error>  (36) 


>  <distance_score>  (36) 
0.97266

>  <inchikey>  (36) 
COFDIZZNQGQPRY-UHFFFAOYSA-N

>  <name>  (36) 
P26724

>  <HIPPO Pose ID>  (36) 
26724

>  <Energy>  (36) 
30.510846

>  <exports>  (36) 
['/opt/xchem-fragalysis-2/maxwin/BulkDock/OUTPUTS/openbind_a71ev2a_c1_knitwork_pure_165VWF8.sdf', '/opt/xchem-fragalysis-2/maxwin/BulkDock/OUTPUTS/openbind_a71ev2a_c1_knitwork_pure_1B07PTU.sdf', '/opt/xchem-fragalysis-2/maxwin/BulkDock/OUTPUTS/openbind_a71ev2a_c1_knitwork_pure_1B07UWE.sdf', '/opt/xchem-fragalysis-2/maxwin/openbind-hippo/a71ev2a/openbind_a71ev2a_c1_scaffold_products.sdf', '/opt/xchem-fragalysis-2/maxwin/openbind-hippo/a71ev2a/cycle_01/bulkdock/openbind_a71ev2a_c1_scaffold_products.sdf', '/opt/xchem-fragalysis-2/maxwin/openbind-hippo/a71ev2a/cycle_01/bulkdock/openbind_a71ev2a_c1_scaffolds.sdf']

>  <fragmenstein_runtime>  (36) 
1.081472

$$$$
P26728
     RDKit          3D

 11 11  0  0  0  0  0  0  0  0999 V2000
   11.9938   14.9090   18.4360 C   0  0  0  0  0  0  0  0  0  0  0  0
   12.1277   16.1664   19.2868 C   0  0  2  0  0  0  0  0  0  0  0  0
   13.2939   17.0197   18.8128 C   0  0  0  0  0  0  0  0  0  0  0  0
   13.6727   18.0382   19.3932 O   0  0  0  0  0  0  0  0  0  0  0  0
   12.1900   15.7743   20.7443 C   0  0  0  0  0  0  0  0  0  0  0  0
   13.3807   15.7586   21.4627 C   0  0  0  0  0  0  0  0  0  0  0  0
   13.5077   15.2568   22.7105 N   0  0  0  0  0  0  0  0  0  0  0  0
   12.3880   14.7612   23.2738 C   0  0  0  0  0  0  0  0  0  0  0  0
   11.1374   14.8095   22.6860 C   0  0  0  0  0  0  0  0  0  0  0  0
    9.7433   14.2494   23.5122 Cl  0  0  0  0  0  0  0  0  0  0  0  0
   11.0389   15.3187   21.4002 C   0  0  0  0  0  0  0  0  0  0  0  0
  2  1  1  6
  2  3  1  0
  3  4  2  0
  2  5  1  0
  5  6  2  0
  6  7  1  0
  7  8  2  0
  8  9  1  0
  9 10  1  0
  9 11  2  0
 11  5  1  0
M  END
>  <ref_pdb>  (37) 
A3564a

>  <subsites>  (37) 
1 - Active Site

>  <HIPPO Compound ID>  (37) 
57322

>  <energy_score>  (37) 
-4.838062

>  <fragmenstein_mode>  (37) 
expansion

>  <scratch_subdir>  (37) 
/opt/xchem-fragalysis-2/maxwin/BulkDock/SCRATCH/511229/C51870-P219

>  <smiles>  (37) 
C[C@H](C=O)c1cncc(Cl)c1

>  <alias>  (37) 
None

>  <ref_mols>  (37) 
A3564a,A4874a

>  <inspiration_score>  (37) 
None

>  <tags>  (37) 
BulkDock Fragalysis export,fragmenstein_placed,openbind_a71ev2a_c1_scaffolds,openbind_a71ev2a_c1_knitwork_pure

>  <fragmenstein_outcome>  (37) 
acceptable

>  <fragmenstein_error>  (37) 


>  <distance_score>  (37) 
0.832887

>  <inchikey>  (37) 
AKSNBUPFDFKHMM-UHFFFAOYSA-N

>  <name>  (37) 
P26728

>  <HIPPO Pose ID>  (37) 
26728

>  <Energy>  (37) 
44.181653

>  <exports>  (37) 
['/opt/xchem-fragalysis-2/maxwin/BulkDock/OUTPUTS/openbind_a71ev2a_c1_knitwork_pure_165VWF8.sdf', '/opt/xchem-fragalysis-2/maxwin/BulkDock/OUTPUTS/openbind_a71ev2a_c1_knitwork_pure_1B07PTU.sdf', '/opt/xchem-fragalysis-2/maxwin/BulkDock/OUTPUTS/openbind_a71ev2a_c1_knitwork_pure_1B07UWE.sdf', '/opt/xchem-fragalysis-2/maxwin/openbind-hippo/a71ev2a/openbind_a71ev2a_c1_scaffold_products.sdf', '/opt/xchem-fragalysis-2/maxwin/openbind-hippo/a71ev2a/cycle_01/bulkdock/openbind_a71ev2a_c1_scaffold_products.sdf', '/opt/xchem-fragalysis-2/maxwin/openbind-hippo/a71ev2a/cycle_01/bulkdock/openbind_a71ev2a_c1_scaffolds.sdf']

>  <fragmenstein_runtime>  (37) 
1.121683

$$$$
P26805
     RDKit          3D

 16 18  0  0  0  0  0  0  0  0999 V2000
   10.2841    8.4654   23.0149 Br  0  0  0  0  0  0  0  0  0  0  0  0
   10.1154   10.1529   23.7743 C   0  0  0  0  0  0  0  0  0  0  0  0
   11.1602   11.0530   23.6167 C   0  0  0  0  0  0  0  0  0  0  0  0
   11.0861   12.2827   24.2386 C   0  0  0  0  0  0  0  0  0  0  0  0
    9.9129   12.6282   24.8745 C   0  0  0  0  0  0  0  0  0  0  0  0
    8.8797   11.7136   25.0718 C   0  0  0  0  0  0  0  0  0  0  0  0
    8.9870   10.4552   24.5292 C   0  0  0  0  0  0  0  0  0  0  0  0
    7.8967   12.2080   25.9327 N   0  0  0  0  0  0  0  0  0  0  0  0
    6.5231   11.7463   25.8380 C   0  0  0  0  0  0  0  0  0  0  0  0
    5.6281   12.1358   26.9683 C   0  0  0  0  0  0  0  0  0  0  0  0
    4.6790   13.1827   26.9948 C   0  0  0  0  0  0  0  0  0  0  0  0
    4.0247   13.2505   28.1563 N   0  0  0  0  0  0  0  0  0  0  0  0
    4.5621   12.2609   28.8857 N   0  0  0  0  0  0  0  0  0  0  0  0
    5.5181   11.5562   28.2166 C   0  0  0  0  0  0  0  0  0  0  0  0
    8.1087   13.6606   25.9033 C   0  0  0  0  0  0  0  0  0  0  0  0
    9.5589   13.9348   25.4858 C   0  0  0  0  0  0  0  0  0  0  0  0
  1  2  1  0
  2  3  2  0
  3  4  1  0
  4  5  2  0
  5  6  1  0
  6  7  2  0
  6  8  1  0
  8  9  1  0
  9 10  1  0
 10 11  1  0
 11 12  2  0
 12 13  1  0
 13 14  1  0
  8 15  1  0
 15 16  1  0
  7  2  1  0
 14 10  2  0
 16  5  1  0
M  END
>  <ref_pdb>  (38) 
A1778a

>  <subsites>  (38) 
1 - Active Site

>  <HIPPO Compound ID>  (38) 
61947

>  <energy_score>  (38) 
-20.027971

>  <fragmenstein_mode>  (38) 
expansion

>  <scratch_subdir>  (38) 
/opt/xchem-fragalysis-2/maxwin/BulkDock/SCRATCH/511229/C43443-P124

>  <smiles>  (38) 
Brc1ccc2c(c1)N(Cc1cn[nH]c1)CC2

>  <alias>  (38) 
None

>  <ref_mols>  (38) 
A2304a,A1778a

>  <inspiration_score>  (38) 
None

>  <tags>  (38) 
BulkDock Fragalysis export,fragmenstein_placed,openbind_a71ev2a_c1_scaffolds,openbind_a71ev2a_c1_knitwork_pure

>  <fragmenstein_outcome>  (38) 
acceptable

>  <fragmenstein_error>  (38) 


>  <distance_score>  (38) 
0.973727

>  <inchikey>  (38) 
AOQUYKRGVSCMIY-UHFFFAOYSA-N

>  <name>  (38) 
P26805

>  <HIPPO Pose ID>  (38) 
26805

>  <Energy>  (38) 
34.709368

>  <exports>  (38) 
['/opt/xchem-fragalysis-2/maxwin/BulkDock/OUTPUTS/openbind_a71ev2a_c1_knitwork_pure_165VWF8.sdf', '/opt/xchem-fragalysis-2/maxwin/BulkDock/OUTPUTS/openbind_a71ev2a_c1_knitwork_pure_1B07PTU.sdf', '/opt/xchem-fragalysis-2/maxwin/BulkDock/OUTPUTS/openbind_a71ev2a_c1_knitwork_pure_1B07UWE.sdf', '/opt/xchem-fragalysis-2/maxwin/openbind-hippo/a71ev2a/openbind_a71ev2a_c1_scaffold_products.sdf', '/opt/xchem-fragalysis-2/maxwin/openbind-hippo/a71ev2a/cycle_01/bulkdock/openbind_a71ev2a_c1_scaffold_products.sdf', '/opt/xchem-fragalysis-2/maxwin/openbind-hippo/a71ev2a/cycle_01/bulkdock/openbind_a71ev2a_c1_scaffolds.sdf']

>  <fragmenstein_runtime>  (38) 
1.029296

$$$$
P26816
     RDKit          3D

 18 20  0  0  0  0  0  0  0  0999 V2000
   10.3443    8.5394   23.2047 C   0  0  0  0  0  0  0  0  0  0  0  0
   10.0916    9.9731   23.5344 C   0  0  0  0  0  0  0  0  0  0  0  0
   10.7847   10.9681   22.8347 C   0  0  0  0  0  0  0  0  0  0  0  0
   10.4747   12.3090   23.0283 C   0  0  0  0  0  0  0  0  0  0  0  0
    9.5638   12.6407   24.0123 C   0  0  0  0  0  0  0  0  0  0  0  0
    8.8883   11.6615   24.7319 C   0  0  0  0  0  0  0  0  0  0  0  0
    9.1140   10.3277   24.4738 C   0  0  0  0  0  0  0  0  0  0  0  0
    8.1391   12.2512   25.7926 N   0  0  0  0  0  0  0  0  0  0  0  0
    6.5544   11.7941   26.1405 S   0  0  0  0  0  0  0  0  0  0  0  0
    5.6352   12.7547   25.5822 O   0  0  0  0  0  0  0  0  0  0  0  0
    6.3972   10.3697   25.9543 O   0  0  0  0  0  0  0  0  0  0  0  0
    6.2922   12.0024   27.8271 C   0  0  0  0  0  0  0  0  0  0  0  0
    6.6049   13.1480   28.5699 C   0  0  0  0  0  0  0  0  0  0  0  0
    6.3111   13.0057   29.8653 N   0  0  0  0  0  0  0  0  0  0  0  0
    5.7614   11.7769   29.9348 N   0  0  0  0  0  0  0  0  0  0  0  0
    5.7400   11.1256   28.7355 C   0  0  0  0  0  0  0  0  0  0  0  0
    8.3976   13.7138   25.7264 C   0  0  0  0  0  0  0  0  0  0  0  0
    9.0795   13.9964   24.3872 C   0  0  0  0  0  0  0  0  0  0  0  0
  1  2  1  0
  2  3  2  0
  3  4  1  0
  4  5  2  0
  5  6  1  0
  6  7  2  0
  6  8  1  0
  8  9  1  0
  9 10  2  0
  9 11  2  0
  9 12  1  0
 12 13  1  0
 13 14  2  0
 14 15  1  0
 15 16  1  0
  8 17  1  0
 17 18  1  0
  7  2  1  0
 16 12  2  0
 18  5  1  0
M  END
>  <ref_pdb>  (39) 
A1778a

>  <subsites>  (39) 
1 - Active Site

>  <HIPPO Compound ID>  (39) 
3735

>  <energy_score>  (39) 
-33.023983

>  <fragmenstein_mode>  (39) 
expansion

>  <scratch_subdir>  (39) 
/opt/xchem-fragalysis-2/maxwin/BulkDock/SCRATCH/511229/C60693-P124

>  <smiles>  (39) 
Cc1ccc2c(c1)N(S(=O)(=O)c1cn[nH]c1)CC2

>  <alias>  (39) 
None

>  <ref_mols>  (39) 
A2304a,A1778a

>  <inspiration_score>  (39) 
None

>  <tags>  (39) 
BulkDock Fragalysis export,fragmenstein_placed,openbind_a71ev2a_c1_scaffolds,openbind_a71ev2a_c1_knitwork_pure

>  <fragmenstein_outcome>  (39) 
acceptable

>  <fragmenstein_error>  (39) 


>  <distance_score>  (39) 
0.90543

>  <inchikey>  (39) 
ZPJZDVARGNTQTH-UHFFFAOYSA-N

>  <name>  (39) 
P26816

>  <HIPPO Pose ID>  (39) 
26816

>  <Energy>  (39) 
19.491966

>  <exports>  (39) 
['/opt/xchem-fragalysis-2/maxwin/BulkDock/OUTPUTS/openbind_a71ev2a_c1_knitwork_pure_165VWF8.sdf', '/opt/xchem-fragalysis-2/maxwin/BulkDock/OUTPUTS/openbind_a71ev2a_c1_knitwork_pure_1B07PTU.sdf', '/opt/xchem-fragalysis-2/maxwin/BulkDock/OUTPUTS/openbind_a71ev2a_c1_knitwork_pure_1B07UWE.sdf', '/opt/xchem-fragalysis-2/maxwin/openbind-hippo/a71ev2a/openbind_a71ev2a_c1_scaffold_products.sdf', '/opt/xchem-fragalysis-2/maxwin/openbind-hippo/a71ev2a/cycle_01/bulkdock/openbind_a71ev2a_c1_scaffold_products.sdf', '/opt/xchem-fragalysis-2/maxwin/openbind-hippo/a71ev2a/cycle_01/bulkdock/openbind_a71ev2a_c1_scaffolds.sdf']

>  <fragmenstein_runtime>  (39) 
3.074978

$$$$
P26819
     RDKit          3D

 18 20  0  0  0  0  0  0  0  0999 V2000
    5.5310   12.7086   25.7220 O   0  0  0  0  0  0  0  0  0  0  0  0
    6.4660   11.7209   26.2026 S   0  0  0  0  0  0  0  0  0  0  0  0
    6.3489   10.3160   25.8938 O   0  0  0  0  0  0  0  0  0  0  0  0
    6.1983   11.7715   27.8988 C   0  0  0  0  0  0  0  0  0  0  0  0
    5.6562   10.7299   28.6666 C   0  0  0  0  0  0  0  0  0  0  0  0
    5.6027   11.0458   29.9643 N   0  0  0  0  0  0  0  0  0  0  0  0
    6.0628   12.3075   30.0108 N   0  0  0  0  0  0  0  0  0  0  0  0
    6.4549   12.7882   28.7937 C   0  0  0  0  0  0  0  0  0  0  0  0
    8.0417   12.2373   25.8982 N   0  0  0  0  0  0  0  0  0  0  0  0
    8.2581   13.7061   25.8986 C   0  0  0  0  0  0  0  0  0  0  0  0
    8.9594   14.0561   24.5807 C   0  0  0  0  0  0  0  0  0  0  0  0
    9.4614   12.7265   24.1390 C   0  0  0  0  0  0  0  0  0  0  0  0
   10.3663   12.4578   23.1292 C   0  0  0  0  0  0  0  0  0  0  0  0
   10.7174   11.1349   22.8900 C   0  0  0  0  0  0  0  0  0  0  0  0
   10.0525   10.1122   23.5656 C   0  0  0  0  0  0  0  0  0  0  0  0
   10.4040    8.4933   23.1612 Cl  0  0  0  0  0  0  0  0  0  0  0  0
    9.0789   10.3872   24.5230 C   0  0  0  0  0  0  0  0  0  0  0  0
    8.8154   11.7039   24.8247 C   0  0  0  0  0  0  0  0  0  0  0  0
  1  2  2  0
  2  3  2  0
  2  4  1  0
  4  5  1  0
  5  6  2  0
  6  7  1  0
  7  8  1  0
  2  9  1  0
  9 10  1  0
 10 11  1  0
 11 12  1  0
 12 13  2  0
 13 14  1  0
 14 15  2  0
 15 16  1  0
 15 17  1  0
 17 18  2  0
  8  4  2  0
 18  9  1  0
 18 12  1  0
M  END
>  <ref_pdb>  (40) 
A1778a

>  <subsites>  (40) 
1 - Active Site

>  <HIPPO Compound ID>  (40) 
41201

>  <energy_score>  (40) 
-35.601117

>  <fragmenstein_mode>  (40) 
expansion

>  <scratch_subdir>  (40) 
/opt/xchem-fragalysis-2/maxwin/BulkDock/SCRATCH/511229/C60700-P124

>  <smiles>  (40) 
O=S(=O)(c1cn[nH]c1)N1CCc2ccc(Cl)cc21

>  <alias>  (40) 
None

>  <ref_mols>  (40) 
A2304a,A1778a

>  <inspiration_score>  (40) 
None

>  <tags>  (40) 
BulkDock Fragalysis export,fragmenstein_placed,openbind_a71ev2a_c1_scaffolds,openbind_a71ev2a_c1_knitwork_pure

>  <fragmenstein_outcome>  (40) 
acceptable

>  <fragmenstein_error>  (40) 


>  <distance_score>  (40) 
0.938064

>  <inchikey>  (40) 
PWNWGEJUGNEAPQ-UHFFFAOYSA-N

>  <name>  (40) 
P26819

>  <HIPPO Pose ID>  (40) 
26819

>  <Energy>  (40) 
11.272462

>  <exports>  (40) 
['/opt/xchem-fragalysis-2/maxwin/BulkDock/OUTPUTS/openbind_a71ev2a_c1_knitwork_pure_165VWF8.sdf', '/opt/xchem-fragalysis-2/maxwin/BulkDock/OUTPUTS/openbind_a71ev2a_c1_knitwork_pure_1B07PTU.sdf', '/opt/xchem-fragalysis-2/maxwin/BulkDock/OUTPUTS/openbind_a71ev2a_c1_knitwork_pure_1B07UWE.sdf', '/opt/xchem-fragalysis-2/maxwin/openbind-hippo/a71ev2a/openbind_a71ev2a_c1_scaffold_products.sdf', '/opt/xchem-fragalysis-2/maxwin/openbind-hippo/a71ev2a/cycle_01/bulkdock/openbind_a71ev2a_c1_scaffold_products.sdf', '/opt/xchem-fragalysis-2/maxwin/openbind-hippo/a71ev2a/cycle_01/bulkdock/openbind_a71ev2a_c1_scaffolds.sdf']

>  <fragmenstein_runtime>  (40) 
1.955107

$$$$
P26820
     RDKit          3D

 21 24  0  0  0  0  0  0  0  0999 V2000
    8.4692    9.6977   24.2087 C   0  0  0  0  0  0  0  0  0  0  0  0
    7.4253    9.9958   25.0528 C   0  0  0  0  0  0  0  0  0  0  0  0
    7.1567   11.2341   25.4968 N   0  0  0  0  0  0  0  0  0  0  0  0
    7.9863   12.2549   25.1153 C   0  0  0  0  0  0  0  0  0  0  0  0
    7.6524   13.5289   25.6661 N   0  0  0  0  0  0  0  0  0  0  0  0
    6.4230   13.8520   26.2152 C   0  0  0  0  0  0  0  0  0  0  0  0
    6.5398   15.0903   26.7903 C   0  0  0  0  0  0  0  0  0  0  0  0
    7.8814   15.4345   26.5891 C   0  0  0  0  0  0  0  0  0  0  0  0
    8.5667   14.5107   25.9110 N   0  0  0  0  0  0  0  0  0  0  0  0
    9.1010   12.0396   24.3078 C   0  0  0  0  0  0  0  0  0  0  0  0
   10.0045   13.0482   23.7960 C   0  0  0  0  0  0  0  0  0  0  0  0
   11.3220   12.8339   23.6362 N   0  0  0  0  0  0  0  0  0  0  0  0
   11.6424   13.6368   22.5367 O   0  0  0  0  0  0  0  0  0  0  0  0
   10.5061   14.3252   22.2277 C   0  0  0  0  0  0  0  0  0  0  0  0
   10.2789   15.1865   20.9781 C   0  0  0  0  0  0  0  0  0  0  0  0
   10.9905   15.1501   19.8094 C   0  0  0  0  0  0  0  0  0  0  0  0
   10.4023   16.0397   18.9504 O   0  0  0  0  0  0  0  0  0  0  0  0
    9.4274   16.6199   19.7070 C   0  0  0  0  0  0  0  0  0  0  0  0
    9.2356   16.0646   20.8723 N   0  0  0  0  0  0  0  0  0  0  0  0
    9.5226   14.0881   23.0727 N   0  0  0  0  0  0  0  0  0  0  0  0
    9.2988   10.7328   23.8225 C   0  0  0  0  0  0  0  0  0  0  0  0
  1  2  2  0
  2  3  1  0
  3  4  2  0
  4  5  1  0
  5  6  1  0
  6  7  2  0
  7  8  1  0
  8  9  2  0
  4 10  1  0
 10 11  1  0
 11 12  2  0
 12 13  1  0
 13 14  1  0
 14 15  1  0
 15 16  2  0
 16 17  1  0
 17 18  1  0
 18 19  2  0
 14 20  2  0
 10 21  2  0
 21  1  1  0
  9  5  1  0
 20 11  1  0
 19 15  1  0
M  END
>  <ref_pdb>  (41) 
A3435a

>  <subsites>  (41) 
1 - Active Site

>  <HIPPO Compound ID>  (41) 
47635

>  <energy_score>  (41) 
-43.284605

>  <fragmenstein_mode>  (41) 
expansion

>  <scratch_subdir>  (41) 
/opt/xchem-fragalysis-2/maxwin/BulkDock/SCRATCH/511229/C7264-P182

>  <smiles>  (41) 
c1cnc(-n2cccn2)c(-c2noc(-c3cocn3)n2)c1

>  <alias>  (41) 
None

>  <ref_mols>  (41) 
A0556a,A3435a

>  <inspiration_score>  (41) 
None

>  <tags>  (41) 
BulkDock Fragalysis export,fragmenstein_placed,openbind_a71ev2a_c1_scaffolds,openbind_a71ev2a_c1_knitwork_pure

>  <fragmenstein_outcome>  (41) 
acceptable

>  <fragmenstein_error>  (41) 


>  <distance_score>  (41) 
0.960692

>  <inchikey>  (41) 
LAHXOKLNMJHBTG-UHFFFAOYSA-N

>  <name>  (41) 
P26820

>  <HIPPO Pose ID>  (41) 
26820

>  <Energy>  (41) 
114.576676

>  <exports>  (41) 
['/opt/xchem-fragalysis-2/maxwin/BulkDock/OUTPUTS/openbind_a71ev2a_c1_knitwork_pure_165VWF8.sdf', '/opt/xchem-fragalysis-2/maxwin/BulkDock/OUTPUTS/openbind_a71ev2a_c1_knitwork_pure_1B07PTU.sdf', '/opt/xchem-fragalysis-2/maxwin/BulkDock/OUTPUTS/openbind_a71ev2a_c1_knitwork_pure_1B07UWE.sdf', '/opt/xchem-fragalysis-2/maxwin/openbind-hippo/a71ev2a/openbind_a71ev2a_c1_scaffold_products.sdf', '/opt/xchem-fragalysis-2/maxwin/openbind-hippo/a71ev2a/cycle_01/bulkdock/openbind_a71ev2a_c1_scaffold_products.sdf', '/opt/xchem-fragalysis-2/maxwin/openbind-hippo/a71ev2a/cycle_01/bulkdock/openbind_a71ev2a_c1_scaffolds.sdf']

>  <fragmenstein_runtime>  (41) 
1.845295

$$$$
P26830
     RDKit          3D

 21 23  0  0  0  0  0  0  0  0999 V2000
    9.6402   14.1666   25.2857 O   0  0  0  0  0  0  0  0  0  0  0  0
    9.7480   13.4599   24.3665 C   0  0  0  0  0  0  0  0  0  0  0  0
   10.7183   13.5122   23.1814 N   0  0  0  0  0  0  0  0  0  0  0  0
   11.8261   14.3892   22.9195 C   0  0  0  0  0  0  0  0  0  0  0  0
   12.1693   14.5467   21.4561 C   0  0  0  0  0  0  0  0  0  0  0  0
   11.0974   15.1264   20.6333 C   0  0  0  0  0  0  0  0  0  0  0  0
   10.8257   15.0575   19.2940 C   0  0  0  0  0  0  0  0  0  0  0  0
    9.7763   15.8788   18.9795 N   0  0  0  0  0  0  0  0  0  0  0  0
    9.4635   16.4229   20.1399 C   0  0  0  0  0  0  0  0  0  0  0  0
   10.2091   15.9917   21.1930 O   0  0  0  0  0  0  0  0  0  0  0  0
    8.8697   12.2437   24.3584 C   0  0  0  0  0  0  0  0  0  0  0  0
    9.2650   11.0335   23.7887 C   0  0  0  0  0  0  0  0  0  0  0  0
    8.5600    9.9000   24.1353 C   0  0  0  0  0  0  0  0  0  0  0  0
    7.5152    9.9077   24.9888 N   0  0  0  0  0  0  0  0  0  0  0  0
    7.0978   11.0999   25.4927 C   0  0  0  0  0  0  0  0  0  0  0  0
    6.0408   11.0973   26.4591 N   0  0  0  0  0  0  0  0  0  0  0  0
    5.2834   12.1530   26.9259 C   0  0  0  0  0  0  0  0  0  0  0  0
    4.4503   11.6528   27.9041 C   0  0  0  0  0  0  0  0  0  0  0  0
    4.7889   10.3013   28.0024 C   0  0  0  0  0  0  0  0  0  0  0  0
    5.7167    9.9586   27.1158 N   0  0  0  0  0  0  0  0  0  0  0  0
    7.7289   12.2891   25.1713 C   0  0  0  0  0  0  0  0  0  0  0  0
  1  2  2  0
  2  3  1  0
  3  4  1  0
  4  5  1  0
  5  6  1  0
  6  7  2  0
  7  8  1  0
  8  9  2  0
  9 10  1  0
  2 11  1  0
 11 12  2  0
 12 13  1  0
 13 14  2  0
 14 15  1  0
 15 16  1  0
 16 17  1  0
 17 18  2  0
 18 19  1  0
 19 20  2  0
 15 21  2  0
 10  6  1  0
 21 11  1  0
 20 16  1  0
M  END
>  <ref_pdb>  (42) 
A3435a

>  <subsites>  (42) 
1 - Active Site

>  <HIPPO Compound ID>  (42) 
45979

>  <energy_score>  (42) 
-4.409124

>  <fragmenstein_mode>  (42) 
expansion

>  <scratch_subdir>  (42) 
/opt/xchem-fragalysis-2/maxwin/BulkDock/SCRATCH/511229/C65317-P182

>  <smiles>  (42) 
O=C(NCCc1cnco1)c1ccnc(-n2cccn2)c1

>  <alias>  (42) 
None

>  <ref_mols>  (42) 
A0556a,A3435a

>  <inspiration_score>  (42) 
None

>  <tags>  (42) 
BulkDock Fragalysis export,fragmenstein_placed,openbind_a71ev2a_c1_scaffolds,openbind_a71ev2a_c1_knitwork_pure

>  <fragmenstein_outcome>  (42) 
acceptable

>  <fragmenstein_error>  (42) 


>  <distance_score>  (42) 
0.793857

>  <inchikey>  (42) 
LLUOFVPUDREFGO-UHFFFAOYSA-N

>  <name>  (42) 
P26830

>  <HIPPO Pose ID>  (42) 
26830

>  <Energy>  (42) 
77.489308

>  <exports>  (42) 
['/opt/xchem-fragalysis-2/maxwin/BulkDock/OUTPUTS/openbind_a71ev2a_c1_knitwork_pure_165VWF8.sdf', '/opt/xchem-fragalysis-2/maxwin/BulkDock/OUTPUTS/openbind_a71ev2a_c1_knitwork_pure_1B07PTU.sdf', '/opt/xchem-fragalysis-2/maxwin/BulkDock/OUTPUTS/openbind_a71ev2a_c1_knitwork_pure_1B07UWE.sdf', '/opt/xchem-fragalysis-2/maxwin/openbind-hippo/a71ev2a/openbind_a71ev2a_c1_scaffold_products.sdf', '/opt/xchem-fragalysis-2/maxwin/openbind-hippo/a71ev2a/cycle_01/bulkdock/openbind_a71ev2a_c1_scaffold_products.sdf', '/opt/xchem-fragalysis-2/maxwin/openbind-hippo/a71ev2a/cycle_01/bulkdock/openbind_a71ev2a_c1_scaffolds.sdf']

>  <fragmenstein_runtime>  (42) 
3.712646

$$$$
P26831
     RDKit          3D

 21 24  0  0  0  0  0  0  0  0999 V2000
    8.6894    9.5973   24.0112 C   0  0  0  0  0  0  0  0  0  0  0  0
    7.6917    9.7899   24.9327 C   0  0  0  0  0  0  0  0  0  0  0  0
    7.3465   10.9863   25.4285 N   0  0  0  0  0  0  0  0  0  0  0  0
    7.9538   12.1048   24.9368 C   0  0  0  0  0  0  0  0  0  0  0  0
    7.3742   13.3362   25.4021 N   0  0  0  0  0  0  0  0  0  0  0  0
    7.4050   14.6093   24.8783 C   0  0  0  0  0  0  0  0  0  0  0  0
    6.6380   15.4166   25.6851 C   0  0  0  0  0  0  0  0  0  0  0  0
    6.1731   14.5657   26.6885 C   0  0  0  0  0  0  0  0  0  0  0  0
    6.6189   13.3201   26.5442 N   0  0  0  0  0  0  0  0  0  0  0  0
    9.0234   12.0002   24.0442 C   0  0  0  0  0  0  0  0  0  0  0  0
    9.8013   13.0705   23.4815 C   0  0  0  0  0  0  0  0  0  0  0  0
    9.3966   13.9545   22.6217 N   0  0  0  0  0  0  0  0  0  0  0  0
   10.5712   14.3919   22.0703 C   0  0  0  0  0  0  0  0  0  0  0  0
   10.4344   15.2453   20.9142 C   0  0  0  0  0  0  0  0  0  0  0  0
   10.9301   15.0949   19.6470 C   0  0  0  0  0  0  0  0  0  0  0  0
   10.3065   16.0215   18.8542 O   0  0  0  0  0  0  0  0  0  0  0  0
    9.5139   16.7157   19.7229 C   0  0  0  0  0  0  0  0  0  0  0  0
    9.5140   16.2615   20.9461 N   0  0  0  0  0  0  0  0  0  0  0  0
   11.6819   13.8948   22.6262 N   0  0  0  0  0  0  0  0  0  0  0  0
   11.1647   12.9901   23.5735 O   0  0  0  0  0  0  0  0  0  0  0  0
    9.3645   10.7165   23.5757 C   0  0  0  0  0  0  0  0  0  0  0  0
  1  2  2  0
  2  3  1  0
  3  4  2  0
  4  5  1  0
  5  6  1  0
  6  7  2  0
  7  8  1  0
  8  9  2  0
  4 10  1  0
 10 11  1  0
 11 12  2  0
 12 13  1  0
 13 14  1  0
 14 15  2  0
 15 16  1  0
 16 17  1  0
 17 18  2  0
 13 19  2  0
 19 20  1  0
 10 21  2  0
 21  1  1  0
  9  5  1  0
 20 11  1  0
 18 14  1  0
M  END
>  <ref_pdb>  (43) 
A3435a

>  <subsites>  (43) 
1 - Active Site

>  <HIPPO Compound ID>  (43) 
53411

>  <energy_score>  (43) 
-23.951021

>  <fragmenstein_mode>  (43) 
expansion

>  <scratch_subdir>  (43) 
/opt/xchem-fragalysis-2/maxwin/BulkDock/SCRATCH/511229/C65318-P182

>  <smiles>  (43) 
c1cnc(-n2cccn2)c(-c2nc(-c3cocn3)no2)c1

>  <alias>  (43) 
None

>  <ref_mols>  (43) 
A0556a,A3435a

>  <inspiration_score>  (43) 
None

>  <tags>  (43) 
BulkDock Fragalysis export,fragmenstein_placed,openbind_a71ev2a_c1_scaffolds,openbind_a71ev2a_c1_knitwork_pure

>  <fragmenstein_outcome>  (43) 
acceptable

>  <fragmenstein_error>  (43) 


>  <distance_score>  (43) 
0.979194

>  <inchikey>  (43) 
HLUHSVZNKBAJRE-UHFFFAOYSA-N

>  <name>  (43) 
P26831

>  <HIPPO Pose ID>  (43) 
26831

>  <Energy>  (43) 
126.730989

>  <exports>  (43) 
['/opt/xchem-fragalysis-2/maxwin/BulkDock/OUTPUTS/openbind_a71ev2a_c1_knitwork_pure_165VWF8.sdf', '/opt/xchem-fragalysis-2/maxwin/BulkDock/OUTPUTS/openbind_a71ev2a_c1_knitwork_pure_1B07PTU.sdf', '/opt/xchem-fragalysis-2/maxwin/BulkDock/OUTPUTS/openbind_a71ev2a_c1_knitwork_pure_1B07UWE.sdf', '/opt/xchem-fragalysis-2/maxwin/openbind-hippo/a71ev2a/openbind_a71ev2a_c1_scaffold_products.sdf', '/opt/xchem-fragalysis-2/maxwin/openbind-hippo/a71ev2a/cycle_01/bulkdock/openbind_a71ev2a_c1_scaffold_products.sdf', '/opt/xchem-fragalysis-2/maxwin/openbind-hippo/a71ev2a/cycle_01/bulkdock/openbind_a71ev2a_c1_scaffolds.sdf']

>  <fragmenstein_runtime>  (43) 
1.486118

$$$$
P26870
     RDKit          3D

 23 25  0  0  0  0  0  0  0  0999 V2000
   10.2862   13.6770   25.1388 O   0  0  0  0  0  0  0  0  0  0  0  0
   10.1504   13.0487   24.1681 C   0  0  0  0  0  0  0  0  0  0  0  0
   10.9959   13.0015   22.8862 N   0  0  0  0  0  0  0  0  0  0  0  0
   12.2412   13.6466   22.5630 C   0  0  0  0  0  0  0  0  0  0  0  0
   12.3961   14.0506   21.0783 C   0  0  0  0  0  0  0  0  0  0  0  0
   11.2172   14.7044   20.6112 N   0  0  0  0  0  0  0  0  0  0  0  0
   10.9403   14.8422   19.2063 C   0  0  0  0  0  0  0  0  0  0  0  0
    9.7268   15.7406   19.0007 C   0  0  0  0  0  0  0  0  0  0  0  0
    8.8268   15.5580   20.0784 O   0  0  0  0  0  0  0  0  0  0  0  0
    9.4006   16.1537   21.2235 C   0  0  0  0  0  0  0  0  0  0  0  0
   10.8636   15.7778   21.3847 C   0  0  0  0  0  0  0  0  0  0  0  0
   11.7080   16.2620   22.1207 O   0  0  0  0  0  0  0  0  0  0  0  0
    9.0402   12.0427   24.1728 C   0  0  0  0  0  0  0  0  0  0  0  0
    9.3252   10.7658   23.6584 C   0  0  0  0  0  0  0  0  0  0  0  0
    8.5683    9.6705   24.0370 C   0  0  0  0  0  0  0  0  0  0  0  0
    7.5583    9.8698   24.9495 C   0  0  0  0  0  0  0  0  0  0  0  0
    7.2398   11.0654   25.4603 N   0  0  0  0  0  0  0  0  0  0  0  0
    7.9448   12.1543   25.0386 C   0  0  0  0  0  0  0  0  0  0  0  0
    7.4437   13.4142   25.4872 N   0  0  0  0  0  0  0  0  0  0  0  0
    7.4846   14.6246   24.8277 C   0  0  0  0  0  0  0  0  0  0  0  0
    6.7193   15.5063   25.5511 C   0  0  0  0  0  0  0  0  0  0  0  0
    6.2691   14.7662   26.6508 C   0  0  0  0  0  0  0  0  0  0  0  0
    6.7054   13.5078   26.6336 N   0  0  0  0  0  0  0  0  0  0  0  0
  1  2  2  0
  2  3  1  0
  3  4  1  0
  4  5  1  0
  5  6  1  0
  6  7  1  0
  7  8  1  0
  8  9  1  0
  9 10  1  0
 10 11  1  0
 11 12  2  0
  2 13  1  0
 13 14  2  0
 14 15  1  0
 15 16  2  0
 16 17  1  0
 17 18  2  0
 18 19  1  0
 19 20  1  0
 20 21  2  0
 21 22  1  0
 22 23  2  0
 11  6  1  0
 18 13  1  0
 23 19  1  0
M  END
>  <ref_pdb>  (44) 
A3435a

>  <subsites>  (44) 
1 - Active Site

>  <HIPPO Compound ID>  (44) 
65382

>  <energy_score>  (44) 
-12.472304

>  <fragmenstein_mode>  (44) 
expansion

>  <scratch_subdir>  (44) 
/opt/xchem-fragalysis-2/maxwin/BulkDock/SCRATCH/511229/C65382-P182

>  <smiles>  (44) 
O=C(NCCN1CCOCC1=O)c1cccnc1-n1cccn1

>  <alias>  (44) 
None

>  <ref_mols>  (44) 
A0556a,A3435a

>  <inspiration_score>  (44) 
None

>  <tags>  (44) 
BulkDock Fragalysis export,fragmenstein_placed,openbind_a71ev2a_c1_scaffolds,openbind_a71ev2a_c1_knitwork_pure

>  <fragmenstein_outcome>  (44) 
acceptable

>  <fragmenstein_error>  (44) 


>  <distance_score>  (44) 
0.530988

>  <inchikey>  (44) 
MZDGATSJXWUBEN-UHFFFAOYSA-N

>  <name>  (44) 
P26870

>  <HIPPO Pose ID>  (44) 
26870

>  <Energy>  (44) 
169.792825

>  <exports>  (44) 
['/opt/xchem-fragalysis-2/maxwin/BulkDock/OUTPUTS/openbind_a71ev2a_c1_knitwork_pure_165VWF8.sdf', '/opt/xchem-fragalysis-2/maxwin/BulkDock/OUTPUTS/openbind_a71ev2a_c1_knitwork_pure_1B07PTU.sdf', '/opt/xchem-fragalysis-2/maxwin/BulkDock/OUTPUTS/openbind_a71ev2a_c1_knitwork_pure_1B07UWE.sdf', '/opt/xchem-fragalysis-2/maxwin/openbind-hippo/a71ev2a/openbind_a71ev2a_c1_scaffold_products.sdf', '/opt/xchem-fragalysis-2/maxwin/openbind-hippo/a71ev2a/cycle_01/bulkdock/openbind_a71ev2a_c1_scaffold_products.sdf', '/opt/xchem-fragalysis-2/maxwin/openbind-hippo/a71ev2a/cycle_01/bulkdock/openbind_a71ev2a_c1_scaffolds.sdf']

>  <fragmenstein_runtime>  (44) 
3.894766

$$$$
P26874
     RDKit          3D

 16 17  0  0  0  0  0  0  0  0999 V2000
   11.9574   14.6880   21.1155 C   0  0  0  0  0  0  0  0  0  0  0  0
   11.8042   14.4326   22.5938 C   0  0  0  0  0  0  0  0  0  0  0  0
   10.7329   13.5300   22.9155 N   0  0  0  0  0  0  0  0  0  0  0  0
    9.8227   13.4607   24.1529 C   0  0  0  0  0  0  0  0  0  0  0  0
    9.7444   14.1707   25.0741 O   0  0  0  0  0  0  0  0  0  0  0  0
    8.9557   12.2395   24.2047 C   0  0  0  0  0  0  0  0  0  0  0  0
    9.3476   11.0202   23.6583 C   0  0  0  0  0  0  0  0  0  0  0  0
    8.6540    9.8912   24.0431 C   0  0  0  0  0  0  0  0  0  0  0  0
    7.6181    9.9127   24.9082 N   0  0  0  0  0  0  0  0  0  0  0  0
    7.2037   11.1124   25.3960 C   0  0  0  0  0  0  0  0  0  0  0  0
    6.1476   11.1214   26.3651 N   0  0  0  0  0  0  0  0  0  0  0  0
    5.4088   12.1850   26.8443 C   0  0  0  0  0  0  0  0  0  0  0  0
    4.5678   11.6892   27.8185 C   0  0  0  0  0  0  0  0  0  0  0  0
    4.8805   10.3308   27.8999 C   0  0  0  0  0  0  0  0  0  0  0  0
    5.7975    9.9808   27.0051 N   0  0  0  0  0  0  0  0  0  0  0  0
    7.8314   12.2956   25.0439 C   0  0  0  0  0  0  0  0  0  0  0  0
  1  2  1  0
  2  3  1  0
  3  4  1  0
  4  5  2  0
  4  6  1  0
  6  7  2  0
  7  8  1  0
  8  9  2  0
  9 10  1  0
 10 11  1  0
 11 12  1  0
 12 13  2  0
 13 14  1  0
 14 15  2  0
 10 16  2  0
 16  6  1  0
 15 11  1  0
M  END
>  <ref_pdb>  (45) 
A3435a

>  <subsites>  (45) 
1 - Active Site

>  <HIPPO Compound ID>  (45) 
52108

>  <energy_score>  (45) 
-12.139653

>  <fragmenstein_mode>  (45) 
expansion

>  <scratch_subdir>  (45) 
/opt/xchem-fragalysis-2/maxwin/BulkDock/SCRATCH/511229/C65385-P182

>  <smiles>  (45) 
CCNC(=O)c1ccnc(-n2cccn2)c1

>  <alias>  (45) 
None

>  <ref_mols>  (45) 
A0556a,A3435a

>  <inspiration_score>  (45) 
None

>  <tags>  (45) 
BulkDock Fragalysis export,fragmenstein_placed,openbind_a71ev2a_c1_scaffolds,openbind_a71ev2a_c1_knitwork_pure

>  <fragmenstein_outcome>  (45) 
acceptable

>  <fragmenstein_error>  (45) 


>  <distance_score>  (45) 
0.832468

>  <inchikey>  (45) 
AZNSWSRGOHBTSU-UHFFFAOYSA-N

>  <name>  (45) 
P26874

>  <HIPPO Pose ID>  (45) 
26874

>  <Energy>  (45) 
59.474662

>  <exports>  (45) 
['/opt/xchem-fragalysis-2/maxwin/BulkDock/OUTPUTS/openbind_a71ev2a_c1_knitwork_pure_165VWF8.sdf', '/opt/xchem-fragalysis-2/maxwin/BulkDock/OUTPUTS/openbind_a71ev2a_c1_knitwork_pure_1B07PTU.sdf', '/opt/xchem-fragalysis-2/maxwin/BulkDock/OUTPUTS/openbind_a71ev2a_c1_knitwork_pure_1B07UWE.sdf', '/opt/xchem-fragalysis-2/maxwin/openbind-hippo/a71ev2a/openbind_a71ev2a_c1_scaffold_products.sdf', '/opt/xchem-fragalysis-2/maxwin/openbind-hippo/a71ev2a/cycle_01/bulkdock/openbind_a71ev2a_c1_scaffold_products.sdf', '/opt/xchem-fragalysis-2/maxwin/openbind-hippo/a71ev2a/cycle_01/bulkdock/openbind_a71ev2a_c1_scaffolds.sdf']

>  <fragmenstein_runtime>  (45) 
1.787072

$$$$
P26875
     RDKit          3D

 16 17  0  0  0  0  0  0  0  0999 V2000
   11.9367   14.6136   20.9997 C   0  0  0  0  0  0  0  0  0  0  0  0
   11.7376   14.4620   22.4851 C   0  0  0  0  0  0  0  0  0  0  0  0
   10.7322   13.5019   22.8515 N   0  0  0  0  0  0  0  0  0  0  0  0
   10.0076   13.2760   24.1872 C   0  0  0  0  0  0  0  0  0  0  0  0
   10.1635   13.7802   25.2251 O   0  0  0  0  0  0  0  0  0  0  0  0
    9.0121   12.1558   24.1534 C   0  0  0  0  0  0  0  0  0  0  0  0
    9.4202   10.9386   23.5965 C   0  0  0  0  0  0  0  0  0  0  0  0
    8.7449    9.7850   23.9502 C   0  0  0  0  0  0  0  0  0  0  0  0
    7.6979    9.7685   24.7991 N   0  0  0  0  0  0  0  0  0  0  0  0
    7.2792   10.9584   25.2868 C   0  0  0  0  0  0  0  0  0  0  0  0
    7.8739   12.1738   24.9742 C   0  0  0  0  0  0  0  0  0  0  0  0
    7.2719   13.3483   25.4814 N   0  0  0  0  0  0  0  0  0  0  0  0
    7.3226   14.6254   24.9681 C   0  0  0  0  0  0  0  0  0  0  0  0
    6.5147   15.4126   25.7524 C   0  0  0  0  0  0  0  0  0  0  0  0
    5.9980   14.5352   26.7135 C   0  0  0  0  0  0  0  0  0  0  0  0
    6.4397   13.2861   26.5580 N   0  0  0  0  0  0  0  0  0  0  0  0
  1  2  1  0
  2  3  1  0
  3  4  1  0
  4  5  2  0
  4  6  1  0
  6  7  2  0
  7  8  1  0
  8  9  2  0
  9 10  1  0
 10 11  2  0
 11 12  1  0
 12 13  1  0
 13 14  2  0
 14 15  1  0
 15 16  2  0
 11  6  1  0
 16 12  1  0
M  END
>  <ref_pdb>  (46) 
A3435a

>  <subsites>  (46) 
1 - Active Site

>  <HIPPO Compound ID>  (46) 
48415

>  <energy_score>  (46) 
-14.819471

>  <fragmenstein_mode>  (46) 
expansion

>  <scratch_subdir>  (46) 
/opt/xchem-fragalysis-2/maxwin/BulkDock/SCRATCH/511229/C65386-P182

>  <smiles>  (46) 
CCNC(=O)c1ccncc1-n1cccn1

>  <alias>  (46) 
None

>  <ref_mols>  (46) 
A0556a,A3435a

>  <inspiration_score>  (46) 
None

>  <tags>  (46) 
BulkDock Fragalysis export,fragmenstein_placed,openbind_a71ev2a_c1_scaffolds,openbind_a71ev2a_c1_knitwork_pure

>  <fragmenstein_outcome>  (46) 
acceptable

>  <fragmenstein_error>  (46) 


>  <distance_score>  (46) 
0.40621

>  <inchikey>  (46) 
IHYLMDBZOJESMS-UHFFFAOYSA-N

>  <name>  (46) 
P26875

>  <HIPPO Pose ID>  (46) 
26875

>  <Energy>  (46) 
20.92683

>  <exports>  (46) 
['/opt/xchem-fragalysis-2/maxwin/BulkDock/OUTPUTS/openbind_a71ev2a_c1_knitwork_pure_165VWF8.sdf', '/opt/xchem-fragalysis-2/maxwin/BulkDock/OUTPUTS/openbind_a71ev2a_c1_knitwork_pure_1B07PTU.sdf', '/opt/xchem-fragalysis-2/maxwin/BulkDock/OUTPUTS/openbind_a71ev2a_c1_knitwork_pure_1B07UWE.sdf', '/opt/xchem-fragalysis-2/maxwin/openbind-hippo/a71ev2a/openbind_a71ev2a_c1_scaffold_products.sdf', '/opt/xchem-fragalysis-2/maxwin/openbind-hippo/a71ev2a/cycle_01/bulkdock/openbind_a71ev2a_c1_scaffold_products.sdf', '/opt/xchem-fragalysis-2/maxwin/openbind-hippo/a71ev2a/cycle_01/bulkdock/openbind_a71ev2a_c1_scaffolds.sdf']

>  <fragmenstein_runtime>  (46) 
1.42087

$$$$
P26877
     RDKit          3D

 21 23  0  0  0  0  0  0  0  0999 V2000
    9.5024   14.1671   25.1794 O   0  0  0  0  0  0  0  0  0  0  0  0
    9.7668   13.3313   24.4122 C   0  0  0  0  0  0  0  0  0  0  0  0
   10.9282   13.2282   23.4143 N   0  0  0  0  0  0  0  0  0  0  0  0
   11.9572   14.1712   23.0802 C   0  0  0  0  0  0  0  0  0  0  0  0
   12.0955   14.3565   21.5802 C   0  0  0  0  0  0  0  0  0  0  0  0
   10.7701   14.6858   20.9296 C   0  0  2  0  0  0  0  0  0  0  0  0
   10.8785   14.9680   19.4547 C   0  0  0  0  0  0  0  0  0  0  0  0
    9.8439   16.0408   19.2321 C   0  0  0  0  0  0  0  0  0  0  0  0
    9.2595   16.3546   20.5864 C   0  0  0  0  0  0  0  0  0  0  0  0
   10.2235   15.8617   21.5059 O   0  0  0  0  0  0  0  0  0  0  0  0
    8.8794   12.1127   24.4236 C   0  0  0  0  0  0  0  0  0  0  0  0
    9.2246   10.8878   23.8521 C   0  0  0  0  0  0  0  0  0  0  0  0
    8.4792    9.7816   24.1974 C   0  0  0  0  0  0  0  0  0  0  0  0
    7.4358    9.8226   25.0489 N   0  0  0  0  0  0  0  0  0  0  0  0
    7.0573   11.0280   25.5473 C   0  0  0  0  0  0  0  0  0  0  0  0
    5.9986   11.0640   26.5099 N   0  0  0  0  0  0  0  0  0  0  0  0
    5.2590   12.1428   26.9505 C   0  0  0  0  0  0  0  0  0  0  0  0
    4.4103   11.6773   27.9322 C   0  0  0  0  0  0  0  0  0  0  0  0
    4.7260   10.3229   28.0632 C   0  0  0  0  0  0  0  0  0  0  0  0
    5.6551    9.9457   27.1924 N   0  0  0  0  0  0  0  0  0  0  0  0
    7.7295   12.1937   25.2245 C   0  0  0  0  0  0  0  0  0  0  0  0
  1  2  2  0
  2  3  1  0
  3  4  1  0
  4  5  1  0
  6  5  1  1
  6  7  1  0
  7  8  1  0
  8  9  1  0
  9 10  1  0
  2 11  1  0
 11 12  2  0
 12 13  1  0
 13 14  2  0
 14 15  1  0
 15 16  1  0
 16 17  1  0
 17 18  2  0
 18 19  1  0
 19 20  2  0
 15 21  2  0
 10  6  1  0
 21 11  1  0
 20 16  1  0
M  END
>  <ref_pdb>  (47) 
A3435a

>  <subsites>  (47) 
1 - Active Site

>  <HIPPO Compound ID>  (47) 
48493

>  <energy_score>  (47) 
-10.006017

>  <fragmenstein_mode>  (47) 
expansion

>  <scratch_subdir>  (47) 
/opt/xchem-fragalysis-2/maxwin/BulkDock/SCRATCH/511229/C65389-P182

>  <smiles>  (47) 
O=C(NCC[C@@H]1CCCO1)c1ccnc(-n2cccn2)c1

>  <alias>  (47) 
None

>  <ref_mols>  (47) 
A0556a,A3435a

>  <inspiration_score>  (47) 
None

>  <tags>  (47) 
BulkDock Fragalysis export,fragmenstein_placed,openbind_a71ev2a_c1_scaffolds,openbind_a71ev2a_c1_knitwork_pure

>  <fragmenstein_outcome>  (47) 
acceptable

>  <fragmenstein_error>  (47) 


>  <distance_score>  (47) 
0.837261

>  <inchikey>  (47) 
KGOROLBWDGQCPO-UHFFFAOYSA-N

>  <name>  (47) 
P26877

>  <HIPPO Pose ID>  (47) 
26877

>  <Energy>  (47) 
77.098812

>  <exports>  (47) 
['/opt/xchem-fragalysis-2/maxwin/BulkDock/OUTPUTS/openbind_a71ev2a_c1_knitwork_pure_165VWF8.sdf', '/opt/xchem-fragalysis-2/maxwin/BulkDock/OUTPUTS/openbind_a71ev2a_c1_knitwork_pure_1B07PTU.sdf', '/opt/xchem-fragalysis-2/maxwin/BulkDock/OUTPUTS/openbind_a71ev2a_c1_knitwork_pure_1B07UWE.sdf', '/opt/xchem-fragalysis-2/maxwin/openbind-hippo/a71ev2a/openbind_a71ev2a_c1_scaffold_products.sdf', '/opt/xchem-fragalysis-2/maxwin/openbind-hippo/a71ev2a/cycle_01/bulkdock/openbind_a71ev2a_c1_scaffold_products.sdf', '/opt/xchem-fragalysis-2/maxwin/openbind-hippo/a71ev2a/cycle_01/bulkdock/openbind_a71ev2a_c1_scaffolds.sdf']

>  <fragmenstein_runtime>  (47) 
4.396765

$$$$
P26878
     RDKit          3D

 21 23  0  0  0  0  0  0  0  0999 V2000
    9.5829   13.9431   25.5200 O   0  0  0  0  0  0  0  0  0  0  0  0
    9.6264   13.3244   24.5390 C   0  0  0  0  0  0  0  0  0  0  0  0
   10.5732   13.4246   23.3484 N   0  0  0  0  0  0  0  0  0  0  0  0
   11.7229   14.2382   23.1472 C   0  0  0  0  0  0  0  0  0  0  0  0
   12.2299   14.2744   21.7381 C   0  0  0  0  0  0  0  0  0  0  0  0
   11.4925   15.1502   20.7685 C   0  0  1  0  0  0  0  0  0  0  0  0
   10.5765   14.5432   19.7605 C   0  0  0  0  0  0  0  0  0  0  0  0
    9.8862   15.7792   19.2580 C   0  0  0  0  0  0  0  0  0  0  0  0
    9.5866   16.4771   20.5560 C   0  0  0  0  0  0  0  0  0  0  0  0
   10.7047   16.1506   21.3982 O   0  0  0  0  0  0  0  0  0  0  0  0
    8.6801   12.1676   24.4248 C   0  0  0  0  0  0  0  0  0  0  0  0
    9.1710   10.9626   23.8963 C   0  0  0  0  0  0  0  0  0  0  0  0
    8.5140    9.7895   24.2050 C   0  0  0  0  0  0  0  0  0  0  0  0
    7.4300    9.7398   25.0030 N   0  0  0  0  0  0  0  0  0  0  0  0
    6.9409   10.9150   25.4648 C   0  0  0  0  0  0  0  0  0  0  0  0
    7.4917   12.1515   25.1644 C   0  0  0  0  0  0  0  0  0  0  0  0
    6.8030   13.3111   25.5941 N   0  0  0  0  0  0  0  0  0  0  0  0
    6.8289   14.5771   25.0463 C   0  0  0  0  0  0  0  0  0  0  0  0
    5.9589   15.3547   25.7713 C   0  0  0  0  0  0  0  0  0  0  0  0
    5.4187   14.4788   26.7214 C   0  0  0  0  0  0  0  0  0  0  0  0
    5.9057   13.2407   26.6167 N   0  0  0  0  0  0  0  0  0  0  0  0
  1  2  2  0
  2  3  1  0
  3  4  1  0
  4  5  1  0
  6  5  1  1
  6  7  1  0
  7  8  1  0
  8  9  1  0
  9 10  1  0
  2 11  1  0
 11 12  2  0
 12 13  1  0
 13 14  2  0
 14 15  1  0
 15 16  2  0
 16 17  1  0
 17 18  1  0
 18 19  2  0
 19 20  1  0
 20 21  2  0
 10  6  1  0
 16 11  1  0
 21 17  1  0
M  END
>  <ref_pdb>  (48) 
A3435a

>  <subsites>  (48) 
1 - Active Site

>  <HIPPO Compound ID>  (48) 
51536

>  <energy_score>  (48) 
-3.095105

>  <fragmenstein_mode>  (48) 
expansion

>  <scratch_subdir>  (48) 
/opt/xchem-fragalysis-2/maxwin/BulkDock/SCRATCH/511229/C65390-P182

>  <smiles>  (48) 
O=C(NCC[C@H]1CCCO1)c1ccncc1-n1cccn1

>  <alias>  (48) 
None

>  <ref_mols>  (48) 
A0556a,A3435a

>  <inspiration_score>  (48) 
None

>  <tags>  (48) 
BulkDock Fragalysis export,fragmenstein_placed,openbind_a71ev2a_c1_scaffolds,openbind_a71ev2a_c1_knitwork_pure

>  <fragmenstein_outcome>  (48) 
acceptable

>  <fragmenstein_error>  (48) 


>  <distance_score>  (48) 
0.605255

>  <inchikey>  (48) 
YSKAKYHCRXBUPZ-UHFFFAOYSA-N

>  <name>  (48) 
P26878

>  <HIPPO Pose ID>  (48) 
26878

>  <Energy>  (48) 
41.697174

>  <exports>  (48) 
['/opt/xchem-fragalysis-2/maxwin/BulkDock/OUTPUTS/openbind_a71ev2a_c1_knitwork_pure_165VWF8.sdf', '/opt/xchem-fragalysis-2/maxwin/BulkDock/OUTPUTS/openbind_a71ev2a_c1_knitwork_pure_1B07PTU.sdf', '/opt/xchem-fragalysis-2/maxwin/BulkDock/OUTPUTS/openbind_a71ev2a_c1_knitwork_pure_1B07UWE.sdf', '/opt/xchem-fragalysis-2/maxwin/openbind-hippo/a71ev2a/openbind_a71ev2a_c1_scaffold_products.sdf', '/opt/xchem-fragalysis-2/maxwin/openbind-hippo/a71ev2a/cycle_01/bulkdock/openbind_a71ev2a_c1_scaffold_products.sdf', '/opt/xchem-fragalysis-2/maxwin/openbind-hippo/a71ev2a/cycle_01/bulkdock/openbind_a71ev2a_c1_scaffolds.sdf']

>  <fragmenstein_runtime>  (48) 
4.615841

$$$$
P26880
     RDKit          3D

 21 23  0  0  0  0  0  0  0  0999 V2000
    9.6898   14.0049   25.2486 O   0  0  0  0  0  0  0  0  0  0  0  0
    9.8688   13.1982   24.4276 C   0  0  0  0  0  0  0  0  0  0  0  0
   10.9333   13.1203   23.3248 N   0  0  0  0  0  0  0  0  0  0  0  0
   12.0580   13.9655   23.0554 C   0  0  0  0  0  0  0  0  0  0  0  0
   12.1610   14.2874   21.5754 C   0  0  0  0  0  0  0  0  0  0  0  0
   11.0553   15.1969   21.0904 C   0  0  0  0  0  0  0  0  0  0  0  0
   10.8330   15.2220   19.5813 C   0  0  0  0  0  0  0  0  0  0  0  0
    9.5851   16.0419   19.5688 C   0  0  0  0  0  0  0  0  0  0  0  0
    8.9133   15.9076   20.7173 C   0  0  0  0  0  0  0  0  0  0  0  0
    9.6407   14.9752   21.6097 C   0  0  0  0  0  0  0  0  0  0  0  0
    8.9284   12.0223   24.4297 C   0  0  0  0  0  0  0  0  0  0  0  0
    9.2320   10.7901   23.8525 C   0  0  0  0  0  0  0  0  0  0  0  0
    8.4517    9.7105   24.1962 C   0  0  0  0  0  0  0  0  0  0  0  0
    7.4115    9.7839   25.0485 N   0  0  0  0  0  0  0  0  0  0  0  0
    7.0701   10.9996   25.5473 C   0  0  0  0  0  0  0  0  0  0  0  0
    6.0113   11.0639   26.5078 N   0  0  0  0  0  0  0  0  0  0  0  0
    5.2955   12.1608   26.9416 C   0  0  0  0  0  0  0  0  0  0  0  0
    4.4332   11.7181   27.9220 C   0  0  0  0  0  0  0  0  0  0  0  0
    4.7195   10.3581   28.0616 C   0  0  0  0  0  0  0  0  0  0  0  0
    5.6431    9.9564   27.1959 N   0  0  0  0  0  0  0  0  0  0  0  0
    7.7807   12.1437   25.2288 C   0  0  0  0  0  0  0  0  0  0  0  0
  1  2  2  0
  2  3  1  0
  3  4  1  0
  4  5  1  0
  5  6  1  0
  6  7  1  0
  7  8  1  0
  8  9  2  0
  9 10  1  0
  2 11  1  0
 11 12  2  0
 12 13  1  0
 13 14  2  0
 14 15  1  0
 15 16  1  0
 16 17  1  0
 17 18  2  0
 18 19  1  0
 19 20  2  0
 15 21  2  0
 10  6  1  0
 21 11  1  0
 20 16  1  0
M  END
>  <ref_pdb>  (49) 
A3435a

>  <subsites>  (49) 
1 - Active Site

>  <HIPPO Compound ID>  (49) 
65392

>  <energy_score>  (49) 
-8.663214

>  <fragmenstein_mode>  (49) 
expansion

>  <scratch_subdir>  (49) 
/opt/xchem-fragalysis-2/maxwin/BulkDock/SCRATCH/511229/C65392-P182

>  <smiles>  (49) 
O=C(NCCC1CC=CC1)c1ccnc(-n2cccn2)c1

>  <alias>  (49) 
None

>  <ref_mols>  (49) 
A0556a,A3435a

>  <inspiration_score>  (49) 
None

>  <tags>  (49) 
BulkDock Fragalysis export,fragmenstein_placed,openbind_a71ev2a_c1_scaffolds,openbind_a71ev2a_c1_knitwork_pure

>  <fragmenstein_outcome>  (49) 
acceptable

>  <fragmenstein_error>  (49) 


>  <distance_score>  (49) 
0.907722

>  <inchikey>  (49) 
VJAJBTQOYAJDPL-UHFFFAOYSA-N

>  <name>  (49) 
P26880

>  <HIPPO Pose ID>  (49) 
26880

>  <Energy>  (49) 
84.104485

>  <exports>  (49) 
['/opt/xchem-fragalysis-2/maxwin/BulkDock/OUTPUTS/openbind_a71ev2a_c1_knitwork_pure_165VWF8.sdf', '/opt/xchem-fragalysis-2/maxwin/BulkDock/OUTPUTS/openbind_a71ev2a_c1_knitwork_pure_1B07PTU.sdf', '/opt/xchem-fragalysis-2/maxwin/BulkDock/OUTPUTS/openbind_a71ev2a_c1_knitwork_pure_1B07UWE.sdf', '/opt/xchem-fragalysis-2/maxwin/openbind-hippo/a71ev2a/openbind_a71ev2a_c1_scaffold_products.sdf', '/opt/xchem-fragalysis-2/maxwin/openbind-hippo/a71ev2a/cycle_01/bulkdock/openbind_a71ev2a_c1_scaffold_products.sdf', '/opt/xchem-fragalysis-2/maxwin/openbind-hippo/a71ev2a/cycle_01/bulkdock/openbind_a71ev2a_c1_scaffolds.sdf']

>  <fragmenstein_runtime>  (49) 
4.297905

$$$$
P26881
     RDKit          3D

 19 20  0  0  0  0  0  0  0  0999 V2000
    9.7822   14.0211   25.3443 O   0  0  0  0  0  0  0  0  0  0  0  0
    9.8518   13.2898   24.4410 C   0  0  0  0  0  0  0  0  0  0  0  0
   10.8114   13.2753   23.2459 N   0  0  0  0  0  0  0  0  0  0  0  0
   11.9540   14.1026   22.9526 C   0  0  0  0  0  0  0  0  0  0  0  0
   12.1763   14.4113   21.4816 C   0  0  0  0  0  0  0  0  0  0  0  0
   11.0509   15.0168   20.8157 N   0  0  0  0  0  0  0  0  0  0  0  0
   10.8354   15.0411   19.4731 C   0  0  0  0  0  0  0  0  0  0  0  0
    9.6905   15.7763   19.3100 C   0  0  0  0  0  0  0  0  0  0  0  0
    9.3037   16.1726   20.5943 C   0  0  0  0  0  0  0  0  0  0  0  0
   10.1033   15.6471   21.5149 N   0  0  0  0  0  0  0  0  0  0  0  0
    8.8940   12.1322   24.4568 C   0  0  0  0  0  0  0  0  0  0  0  0
    9.1814   10.8924   23.8848 C   0  0  0  0  0  0  0  0  0  0  0  0
    8.3868    9.8131   24.2365 C   0  0  0  0  0  0  0  0  0  0  0  0
    7.3388    9.8822   25.0944 N   0  0  0  0  0  0  0  0  0  0  0  0
    7.0525   11.1166   25.5918 C   0  0  0  0  0  0  0  0  0  0  0  0
    5.9768   11.1900   26.6244 C   0  0  0  0  0  0  0  0  0  0  0  0
    5.6226   12.2142   27.1815 O   0  0  0  0  0  0  0  0  0  0  0  0
    5.4824    9.9717   26.9383 O   0  0  0  0  0  0  0  0  0  0  0  0
    7.7756   12.2545   25.2872 C   0  0  0  0  0  0  0  0  0  0  0  0
  1  2  2  0
  2  3  1  0
  3  4  1  0
  4  5  1  0
  5  6  1  0
  6  7  1  0
  7  8  2  0
  8  9  1  0
  9 10  2  0
  2 11  1  0
 11 12  2  0
 12 13  1  0
 13 14  2  0
 14 15  1  0
 15 16  1  0
 16 17  2  0
 16 18  1  0
 15 19  2  0
 10  6  1  0
 19 11  1  0
M  END
>  <ref_pdb>  (50) 
A3435a

>  <subsites>  (50) 
1 - Active Site

>  <HIPPO Compound ID>  (50) 
47082

>  <energy_score>  (50) 
-2.5289

>  <fragmenstein_mode>  (50) 
expansion

>  <scratch_subdir>  (50) 
/opt/xchem-fragalysis-2/maxwin/BulkDock/SCRATCH/511229/C65395-P182

>  <smiles>  (50) 
O=C(NCCn1cccn1)c1ccnc(C(=O)O)c1

>  <alias>  (50) 
None

>  <ref_mols>  (50) 
A0556a,A3435a

>  <inspiration_score>  (50) 
None

>  <tags>  (50) 
BulkDock Fragalysis export,fragmenstein_placed,openbind_a71ev2a_c1_scaffolds,openbind_a71ev2a_c1_knitwork_pure

>  <fragmenstein_outcome>  (50) 
acceptable

>  <fragmenstein_error>  (50) 


>  <distance_score>  (50) 
0.618535

>  <inchikey>  (50) 
LUJUPDFZVKGRPH-UHFFFAOYSA-N

>  <name>  (50) 
P26881

>  <HIPPO Pose ID>  (50) 
26881

>  <Energy>  (50) 
49.419534

>  <exports>  (50) 
['/opt/xchem-fragalysis-2/maxwin/BulkDock/OUTPUTS/openbind_a71ev2a_c1_knitwork_pure_165VWF8.sdf', '/opt/xchem-fragalysis-2/maxwin/BulkDock/OUTPUTS/openbind_a71ev2a_c1_knitwork_pure_1B07PTU.sdf', '/opt/xchem-fragalysis-2/maxwin/BulkDock/OUTPUTS/openbind_a71ev2a_c1_knitwork_pure_1B07UWE.sdf', '/opt/xchem-fragalysis-2/maxwin/openbind-hippo/a71ev2a/openbind_a71ev2a_c1_scaffold_products.sdf', '/opt/xchem-fragalysis-2/maxwin/openbind-hippo/a71ev2a/cycle_01/bulkdock/openbind_a71ev2a_c1_scaffold_products.sdf', '/opt/xchem-fragalysis-2/maxwin/openbind-hippo/a71ev2a/cycle_01/bulkdock/openbind_a71ev2a_c1_scaffolds.sdf']

>  <fragmenstein_runtime>  (50) 
1.918979

$$$$
P26889
     RDKit          3D

 22 24  0  0  0  0  0  0  0  0999 V2000
   10.1200   13.6743   25.2150 O   0  0  0  0  0  0  0  0  0  0  0  0
   10.0414   13.0521   24.2352 C   0  0  0  0  0  0  0  0  0  0  0  0
   10.9187   13.0629   22.9782 N   0  0  0  0  0  0  0  0  0  0  0  0
   12.1352   13.7727   22.6950 C   0  0  0  0  0  0  0  0  0  0  0  0
   12.2736   14.2328   21.2467 C   0  0  0  0  0  0  0  0  0  0  0  0
   11.0992   14.9778   20.7254 C   0  0  0  0  0  0  0  0  0  0  0  0
   10.7259   14.9828   19.4047 C   0  0  0  0  0  0  0  0  0  0  0  0
    9.6692   15.7991   19.0272 C   0  0  0  0  0  0  0  0  0  0  0  0
    9.1192   16.6925   19.9164 C   0  0  0  0  0  0  0  0  0  0  0  0
    9.3920   16.6183   21.1997 N   0  0  0  0  0  0  0  0  0  0  0  0
   10.3488   15.7549   21.5664 C   0  0  0  0  0  0  0  0  0  0  0  0
    8.9800   11.9895   24.2032 C   0  0  0  0  0  0  0  0  0  0  0  0
    9.3368   10.7249   23.7183 C   0  0  0  0  0  0  0  0  0  0  0  0
    8.5876    9.6319   24.0996 C   0  0  0  0  0  0  0  0  0  0  0  0
    7.5252    9.7084   24.9233 N   0  0  0  0  0  0  0  0  0  0  0  0
    7.1580   10.9397   25.3425 C   0  0  0  0  0  0  0  0  0  0  0  0
    7.8196   12.1055   24.9813 C   0  0  0  0  0  0  0  0  0  0  0  0
    7.2543   13.3318   25.3930 N   0  0  0  0  0  0  0  0  0  0  0  0
    7.3464   14.5607   24.7790 C   0  0  0  0  0  0  0  0  0  0  0  0
    6.5371   15.4226   25.4788 C   0  0  0  0  0  0  0  0  0  0  0  0
    5.9908   14.6401   26.5034 C   0  0  0  0  0  0  0  0  0  0  0  0
    6.4138   13.3757   26.4625 N   0  0  0  0  0  0  0  0  0  0  0  0
  1  2  2  0
  2  3  1  0
  3  4  1  0
  4  5  1  0
  5  6  1  0
  6  7  2  0
  7  8  1  0
  8  9  2  0
  9 10  1  0
 10 11  2  0
  2 12  1  0
 12 13  2  0
 13 14  1  0
 14 15  2  0
 15 16  1  0
 16 17  2  0
 17 18  1  0
 18 19  1  0
 19 20  2  0
 20 21  1  0
 21 22  2  0
 11  6  1  0
 17 12  1  0
 22 18  1  0
M  END
>  <ref_pdb>  (51) 
A3435a

>  <subsites>  (51) 
1 - Active Site

>  <HIPPO Compound ID>  (51) 
31470

>  <energy_score>  (51) 
-10.077662

>  <fragmenstein_mode>  (51) 
expansion

>  <scratch_subdir>  (51) 
/opt/xchem-fragalysis-2/maxwin/BulkDock/SCRATCH/511229/C65406-P182

>  <smiles>  (51) 
O=C(NCCc1cccnc1)c1ccncc1-n1cccn1

>  <alias>  (51) 
None

>  <ref_mols>  (51) 
A0556a,A3435a

>  <inspiration_score>  (51) 
None

>  <tags>  (51) 
BulkDock Fragalysis export,fragmenstein_placed,openbind_a71ev2a_c1_scaffolds,openbind_a71ev2a_c1_knitwork_pure

>  <fragmenstein_outcome>  (51) 
acceptable

>  <fragmenstein_error>  (51) 


>  <distance_score>  (51) 
0.606948

>  <inchikey>  (51) 
GODMAJBOTXASKT-UHFFFAOYSA-N

>  <name>  (51) 
P26889

>  <HIPPO Pose ID>  (51) 
26889

>  <Energy>  (51) 
57.576382

>  <exports>  (51) 
['/opt/xchem-fragalysis-2/maxwin/BulkDock/OUTPUTS/openbind_a71ev2a_c1_knitwork_pure_165VWF8.sdf', '/opt/xchem-fragalysis-2/maxwin/BulkDock/OUTPUTS/openbind_a71ev2a_c1_knitwork_pure_1B07PTU.sdf', '/opt/xchem-fragalysis-2/maxwin/BulkDock/OUTPUTS/openbind_a71ev2a_c1_knitwork_pure_1B07UWE.sdf', '/opt/xchem-fragalysis-2/maxwin/openbind-hippo/a71ev2a/openbind_a71ev2a_c1_scaffold_products.sdf', '/opt/xchem-fragalysis-2/maxwin/openbind-hippo/a71ev2a/cycle_01/bulkdock/openbind_a71ev2a_c1_scaffold_products.sdf', '/opt/xchem-fragalysis-2/maxwin/openbind-hippo/a71ev2a/cycle_01/bulkdock/openbind_a71ev2a_c1_scaffolds.sdf']

>  <fragmenstein_runtime>  (51) 
2.775975

$$$$
P26890
     RDKit          3D

 22 24  0  0  0  0  0  0  0  0999 V2000
    9.8712   13.9432   25.0927 O   0  0  0  0  0  0  0  0  0  0  0  0
    9.9423   13.1662   24.2274 C   0  0  0  0  0  0  0  0  0  0  0  0
   10.9512   13.0486   23.0752 N   0  0  0  0  0  0  0  0  0  0  0  0
   12.1404   13.8031   22.7958 C   0  0  0  0  0  0  0  0  0  0  0  0
   12.2669   14.2342   21.3345 C   0  0  0  0  0  0  0  0  0  0  0  0
   11.0885   14.9577   20.7880 C   0  0  0  0  0  0  0  0  0  0  0  0
   10.7657   14.9859   19.4525 C   0  0  0  0  0  0  0  0  0  0  0  0
    9.7112   15.7949   19.0533 C   0  0  0  0  0  0  0  0  0  0  0  0
    9.1173   16.6627   19.9374 C   0  0  0  0  0  0  0  0  0  0  0  0
    9.3265   16.5496   21.2288 N   0  0  0  0  0  0  0  0  0  0  0  0
   10.2813   15.6921   21.6152 C   0  0  0  0  0  0  0  0  0  0  0  0
    8.9656   12.0260   24.2695 C   0  0  0  0  0  0  0  0  0  0  0  0
    9.2809   10.7712   23.7498 C   0  0  0  0  0  0  0  0  0  0  0  0
    8.5131    9.7008   24.1420 C   0  0  0  0  0  0  0  0  0  0  0  0
    7.4786    9.8034   24.9973 N   0  0  0  0  0  0  0  0  0  0  0  0
    7.1367   11.0355   25.4581 C   0  0  0  0  0  0  0  0  0  0  0  0
    6.0852   11.1158   26.4268 N   0  0  0  0  0  0  0  0  0  0  0  0
    5.3781   12.2190   26.8578 C   0  0  0  0  0  0  0  0  0  0  0  0
    4.5138   11.7856   27.8411 C   0  0  0  0  0  0  0  0  0  0  0  0
    4.7905   10.4243   27.9859 C   0  0  0  0  0  0  0  0  0  0  0  0
    5.7091   10.0122   27.1198 N   0  0  0  0  0  0  0  0  0  0  0  0
    7.8351   12.1743   25.0879 C   0  0  0  0  0  0  0  0  0  0  0  0
  1  2  2  0
  2  3  1  0
  3  4  1  0
  4  5  1  0
  5  6  1  0
  6  7  2  0
  7  8  1  0
  8  9  2  0
  9 10  1  0
 10 11  2  0
  2 12  1  0
 12 13  2  0
 13 14  1  0
 14 15  2  0
 15 16  1  0
 16 17  1  0
 17 18  1  0
 18 19  2  0
 19 20  1  0
 20 21  2  0
 16 22  2  0
 11  6  1  0
 22 12  1  0
 21 17  1  0
M  END
>  <ref_pdb>  (52) 
A3435a

>  <subsites>  (52) 
1 - Active Site

>  <HIPPO Compound ID>  (52) 
6296

>  <energy_score>  (52) 
-6.025926

>  <fragmenstein_mode>  (52) 
expansion

>  <scratch_subdir>  (52) 
/opt/xchem-fragalysis-2/maxwin/BulkDock/SCRATCH/511229/C65407-P182

>  <smiles>  (52) 
O=C(NCCc1cccnc1)c1ccnc(-n2cccn2)c1

>  <alias>  (52) 
None

>  <ref_mols>  (52) 
A0556a,A3435a

>  <inspiration_score>  (52) 
None

>  <tags>  (52) 
BulkDock Fragalysis export,fragmenstein_placed,openbind_a71ev2a_c1_scaffolds,openbind_a71ev2a_c1_knitwork_pure

>  <fragmenstein_outcome>  (52) 
acceptable

>  <fragmenstein_error>  (52) 


>  <distance_score>  (52) 
0.822708

>  <inchikey>  (52) 
UYOZDXASYOYYCF-UHFFFAOYSA-N

>  <name>  (52) 
P26890

>  <HIPPO Pose ID>  (52) 
26890

>  <Energy>  (52) 
97.592372

>  <exports>  (52) 
['/opt/xchem-fragalysis-2/maxwin/BulkDock/OUTPUTS/openbind_a71ev2a_c1_knitwork_pure_165VWF8.sdf', '/opt/xchem-fragalysis-2/maxwin/BulkDock/OUTPUTS/openbind_a71ev2a_c1_knitwork_pure_1B07PTU.sdf', '/opt/xchem-fragalysis-2/maxwin/BulkDock/OUTPUTS/openbind_a71ev2a_c1_knitwork_pure_1B07UWE.sdf', '/opt/xchem-fragalysis-2/maxwin/openbind-hippo/a71ev2a/openbind_a71ev2a_c1_scaffold_products.sdf', '/opt/xchem-fragalysis-2/maxwin/openbind-hippo/a71ev2a/cycle_01/bulkdock/openbind_a71ev2a_c1_scaffold_products.sdf', '/opt/xchem-fragalysis-2/maxwin/openbind-hippo/a71ev2a/cycle_01/bulkdock/openbind_a71ev2a_c1_scaffolds.sdf']

>  <fragmenstein_runtime>  (52) 
3.851206

$$$$
P26893
     RDKit          3D

 21 23  0  0  0  0  0  0  0  0999 V2000
    9.7611   14.0447   25.2528 O   0  0  0  0  0  0  0  0  0  0  0  0
    9.8796   13.2927   24.3707 C   0  0  0  0  0  0  0  0  0  0  0  0
   10.9190   13.2376   23.2438 N   0  0  0  0  0  0  0  0  0  0  0  0
   11.9785   14.1485   22.9046 C   0  0  0  0  0  0  0  0  0  0  0  0
   12.0947   14.4169   21.4135 C   0  0  0  0  0  0  0  0  0  0  0  0
   10.8619   15.0456   20.8691 C   0  0  0  0  0  0  0  0  0  0  0  0
    9.8495   15.4657   21.5950 N   0  0  0  0  0  0  0  0  0  0  0  0
    9.0638   16.2960   20.8429 C   0  0  0  0  0  0  0  0  0  0  0  0
    9.4482   16.4208   19.5342 C   0  0  0  0  0  0  0  0  0  0  0  0
   10.7058   15.3226   19.1868 S   0  0  0  0  0  0  0  0  0  0  0  0
    8.9387   12.1197   24.3612 C   0  0  0  0  0  0  0  0  0  0  0  0
    9.2757   10.8895   23.7966 C   0  0  0  0  0  0  0  0  0  0  0  0
    8.5215    9.7918   24.1461 C   0  0  0  0  0  0  0  0  0  0  0  0
    7.4785    9.8480   24.9975 N   0  0  0  0  0  0  0  0  0  0  0  0
    7.1120   11.0598   25.4927 C   0  0  0  0  0  0  0  0  0  0  0  0
    6.0545   11.1010   26.4569 N   0  0  0  0  0  0  0  0  0  0  0  0
    5.3304   12.1844   26.9113 C   0  0  0  0  0  0  0  0  0  0  0  0
    4.4773   11.7192   27.8896 C   0  0  0  0  0  0  0  0  0  0  0  0
    4.7742   10.3593   28.0044 C   0  0  0  0  0  0  0  0  0  0  0  0
    5.6937    9.9784   27.1250 N   0  0  0  0  0  0  0  0  0  0  0  0
    7.7949   12.2200   25.1667 C   0  0  0  0  0  0  0  0  0  0  0  0
  1  2  2  0
  2  3  1  0
  3  4  1  0
  4  5  1  0
  5  6  1  0
  6  7  2  0
  7  8  1  0
  8  9  2  0
  9 10  1  0
  2 11  1  0
 11 12  2  0
 12 13  1  0
 13 14  2  0
 14 15  1  0
 15 16  1  0
 16 17  1  0
 17 18  2  0
 18 19  1  0
 19 20  2  0
 15 21  2  0
 10  6  1  0
 21 11  1  0
 20 16  1  0
M  END
>  <ref_pdb>  (53) 
A3435a

>  <subsites>  (53) 
1 - Active Site

>  <HIPPO Compound ID>  (53) 
49901

>  <energy_score>  (53) 
-42.106563

>  <fragmenstein_mode>  (53) 
expansion

>  <scratch_subdir>  (53) 
/opt/xchem-fragalysis-2/maxwin/BulkDock/SCRATCH/511229/C65410-P182

>  <smiles>  (53) 
O=C(NCCc1nccs1)c1ccnc(-n2cccn2)c1

>  <alias>  (53) 
None

>  <ref_mols>  (53) 
A0556a,A3435a

>  <inspiration_score>  (53) 
None

>  <tags>  (53) 
BulkDock Fragalysis export,fragmenstein_placed,openbind_a71ev2a_c1_scaffolds,openbind_a71ev2a_c1_knitwork_pure

>  <fragmenstein_outcome>  (53) 
acceptable

>  <fragmenstein_error>  (53) 


>  <distance_score>  (53) 
0.845052

>  <inchikey>  (53) 
ARHWMQQRHMNSLN-UHFFFAOYSA-N

>  <name>  (53) 
P26893

>  <HIPPO Pose ID>  (53) 
26893

>  <Energy>  (53) 
80.300977

>  <exports>  (53) 
['/opt/xchem-fragalysis-2/maxwin/BulkDock/OUTPUTS/openbind_a71ev2a_c1_knitwork_pure_165VWF8.sdf', '/opt/xchem-fragalysis-2/maxwin/BulkDock/OUTPUTS/openbind_a71ev2a_c1_knitwork_pure_1B07PTU.sdf', '/opt/xchem-fragalysis-2/maxwin/BulkDock/OUTPUTS/openbind_a71ev2a_c1_knitwork_pure_1B07UWE.sdf', '/opt/xchem-fragalysis-2/maxwin/openbind-hippo/a71ev2a/openbind_a71ev2a_c1_scaffold_products.sdf', '/opt/xchem-fragalysis-2/maxwin/openbind-hippo/a71ev2a/cycle_01/bulkdock/openbind_a71ev2a_c1_scaffold_products.sdf', '/opt/xchem-fragalysis-2/maxwin/openbind-hippo/a71ev2a/cycle_01/bulkdock/openbind_a71ev2a_c1_scaffolds.sdf']

>  <fragmenstein_runtime>  (53) 
4.44157

$$$$
P26906
     RDKit          3D

 21 23  0  0  0  0  0  0  0  0999 V2000
    9.6696   14.1266   25.2072 O   0  0  0  0  0  0  0  0  0  0  0  0
    9.8121   13.3870   24.3185 C   0  0  0  0  0  0  0  0  0  0  0  0
   10.8556   13.3728   23.1939 N   0  0  0  0  0  0  0  0  0  0  0  0
   11.8897   14.3174   22.8664 C   0  0  0  0  0  0  0  0  0  0  0  0
   12.1640   14.4380   21.3803 C   0  0  0  0  0  0  0  0  0  0  0  0
   11.0743   15.0373   20.5807 C   0  0  0  0  0  0  0  0  0  0  0  0
   11.0348   15.1412   19.1803 C   0  0  0  0  0  0  0  0  0  0  0  0
    9.9971   15.8611   18.7440 N   0  0  0  0  0  0  0  0  0  0  0  0
    9.4231   16.2905   19.8839 N   0  0  0  0  0  0  0  0  0  0  0  0
    9.9245   15.6676   20.9817 C   0  0  0  0  0  0  0  0  0  0  0  0
    8.9019   12.1900   24.3024 C   0  0  0  0  0  0  0  0  0  0  0  0
    9.2887   10.9664   23.7541 C   0  0  0  0  0  0  0  0  0  0  0  0
    8.5811    9.8419   24.1197 C   0  0  0  0  0  0  0  0  0  0  0  0
    7.5410    9.8693   24.9759 N   0  0  0  0  0  0  0  0  0  0  0  0
    7.1213   11.0717   25.4484 C   0  0  0  0  0  0  0  0  0  0  0  0
    6.0587   11.0771   26.3958 N   0  0  0  0  0  0  0  0  0  0  0  0
    5.2228   12.0958   26.7799 C   0  0  0  0  0  0  0  0  0  0  0  0
    4.3913   11.6775   27.7141 N   0  0  0  0  0  0  0  0  0  0  0  0
    4.7900   10.3968   27.9247 C   0  0  0  0  0  0  0  0  0  0  0  0
    5.7757    9.9833   27.1387 N   0  0  0  0  0  0  0  0  0  0  0  0
    7.7524   12.2560   25.1054 C   0  0  0  0  0  0  0  0  0  0  0  0
  1  2  2  0
  2  3  1  0
  3  4  1  0
  4  5  1  0
  5  6  1  0
  6  7  1  0
  7  8  2  0
  8  9  1  0
  9 10  1  0
  2 11  1  0
 11 12  2  0
 12 13  1  0
 13 14  2  0
 14 15  1  0
 15 16  1  0
 16 17  1  0
 17 18  2  0
 18 19  1  0
 19 20  2  0
 15 21  2  0
 10  6  2  0
 21 11  1  0
 20 16  1  0
M  END
>  <ref_pdb>  (54) 
A3435a

>  <subsites>  (54) 
1 - Active Site

>  <HIPPO Compound ID>  (54) 
50940

>  <energy_score>  (54) 
-12.783626

>  <fragmenstein_mode>  (54) 
expansion

>  <scratch_subdir>  (54) 
/opt/xchem-fragalysis-2/maxwin/BulkDock/SCRATCH/511229/C50809-P182

>  <smiles>  (54) 
O=C(NCCc1cn[nH]c1)c1ccnc(-n2cncn2)c1

>  <alias>  (54) 
None

>  <ref_mols>  (54) 
A0556a,A3435a

>  <inspiration_score>  (54) 
None

>  <tags>  (54) 
BulkDock Fragalysis export,fragmenstein_placed,openbind_a71ev2a_c1_scaffolds,openbind_a71ev2a_c1_knitwork_pure

>  <fragmenstein_outcome>  (54) 
acceptable

>  <fragmenstein_error>  (54) 


>  <distance_score>  (54) 
0.809537

>  <inchikey>  (54) 
GQSJCPRFXMQJKB-UHFFFAOYSA-N

>  <name>  (54) 
P26906

>  <HIPPO Pose ID>  (54) 
26906

>  <Energy>  (54) 
80.471875

>  <exports>  (54) 
['/opt/xchem-fragalysis-2/maxwin/BulkDock/OUTPUTS/openbind_a71ev2a_c1_knitwork_pure_165VWF8.sdf', '/opt/xchem-fragalysis-2/maxwin/BulkDock/OUTPUTS/openbind_a71ev2a_c1_knitwork_pure_1B07PTU.sdf', '/opt/xchem-fragalysis-2/maxwin/BulkDock/OUTPUTS/openbind_a71ev2a_c1_knitwork_pure_1B07UWE.sdf', '/opt/xchem-fragalysis-2/maxwin/openbind-hippo/a71ev2a/openbind_a71ev2a_c1_scaffold_products.sdf', '/opt/xchem-fragalysis-2/maxwin/openbind-hippo/a71ev2a/cycle_01/bulkdock/openbind_a71ev2a_c1_scaffold_products.sdf', '/opt/xchem-fragalysis-2/maxwin/openbind-hippo/a71ev2a/cycle_01/bulkdock/openbind_a71ev2a_c1_scaffolds.sdf']

>  <fragmenstein_runtime>  (54) 
3.572438

$$$$
P26912
     RDKit          3D

 19 20  0  0  0  0  0  0  0  0999 V2000
    4.3329   10.1968   28.4762 C   0  0  0  0  0  0  0  0  0  0  0  0
    5.4575   10.1696   27.4600 C   0  0  0  0  0  0  0  0  0  0  0  0
    5.6769   11.7764   26.6714 S   0  0  0  0  0  0  0  0  0  0  0  0
    7.0477   11.4569   25.5721 C   0  0  0  0  0  0  0  0  0  0  0  0
    7.8385   12.5374   25.2316 C   0  0  0  0  0  0  0  0  0  0  0  0
    8.9686   12.3325   24.4392 C   0  0  0  0  0  0  0  0  0  0  0  0
    9.9714   13.4446   24.4212 C   0  0  0  0  0  0  0  0  0  0  0  0
    9.9779   14.1440   25.3514 O   0  0  0  0  0  0  0  0  0  0  0  0
   10.8957   13.4059   23.2030 N   0  0  0  0  0  0  0  0  0  0  0  0
   11.9706   14.2789   22.8179 C   0  0  0  0  0  0  0  0  0  0  0  0
   12.1870   14.3950   21.3243 C   0  0  0  0  0  0  0  0  0  0  0  0
   11.0815   15.0174   20.5661 C   0  0  0  0  0  0  0  0  0  0  0  0
   11.0191   15.1595   19.1708 C   0  0  0  0  0  0  0  0  0  0  0  0
    9.9701   15.8826   18.7694 N   0  0  0  0  0  0  0  0  0  0  0  0
    9.4108   16.2781   19.9300 N   0  0  0  0  0  0  0  0  0  0  0  0
    9.9387   15.6353   21.0045 C   0  0  0  0  0  0  0  0  0  0  0  0
    9.2113   11.0659   23.9145 C   0  0  0  0  0  0  0  0  0  0  0  0
    8.3600   10.0440   24.2987 C   0  0  0  0  0  0  0  0  0  0  0  0
    7.3008   10.2065   25.1308 N   0  0  0  0  0  0  0  0  0  0  0  0
  1  2  1  0
  2  3  1  0
  3  4  1  0
  4  5  2  0
  5  6  1  0
  6  7  1  0
  7  8  2  0
  7  9  1  0
  9 10  1  0
 10 11  1  0
 11 12  1  0
 12 13  1  0
 13 14  2  0
 14 15  1  0
 15 16  1  0
  6 17  2  0
 17 18  1  0
 18 19  2  0
 19  4  1  0
 16 12  2  0
M  END
>  <ref_pdb>  (55) 
A3435a

>  <subsites>  (55) 
1 - Active Site

>  <HIPPO Compound ID>  (55) 
50851

>  <energy_score>  (55) 
-0.993888

>  <fragmenstein_mode>  (55) 
expansion

>  <scratch_subdir>  (55) 
/opt/xchem-fragalysis-2/maxwin/BulkDock/SCRATCH/511229/C50816-P182

>  <smiles>  (55) 
CCSc1cc(C(=O)NCCc2cn[nH]c2)ccn1

>  <alias>  (55) 
None

>  <ref_mols>  (55) 
A0556a,A3435a

>  <inspiration_score>  (55) 
None

>  <tags>  (55) 
BulkDock Fragalysis export,fragmenstein_placed,openbind_a71ev2a_c1_scaffolds,openbind_a71ev2a_c1_knitwork_pure

>  <fragmenstein_outcome>  (55) 
acceptable

>  <fragmenstein_error>  (55) 


>  <distance_score>  (55) 
0.949325

>  <inchikey>  (55) 
GEFPGABNNYEEAW-UHFFFAOYSA-N

>  <name>  (55) 
P26912

>  <HIPPO Pose ID>  (55) 
26912

>  <Energy>  (55) 
9.834219

>  <exports>  (55) 
['/opt/xchem-fragalysis-2/maxwin/BulkDock/OUTPUTS/openbind_a71ev2a_c1_knitwork_pure_165VWF8.sdf', '/opt/xchem-fragalysis-2/maxwin/BulkDock/OUTPUTS/openbind_a71ev2a_c1_knitwork_pure_1B07PTU.sdf', '/opt/xchem-fragalysis-2/maxwin/BulkDock/OUTPUTS/openbind_a71ev2a_c1_knitwork_pure_1B07UWE.sdf', '/opt/xchem-fragalysis-2/maxwin/openbind-hippo/a71ev2a/openbind_a71ev2a_c1_scaffold_products.sdf', '/opt/xchem-fragalysis-2/maxwin/openbind-hippo/a71ev2a/cycle_01/bulkdock/openbind_a71ev2a_c1_scaffold_products.sdf', '/opt/xchem-fragalysis-2/maxwin/openbind-hippo/a71ev2a/cycle_01/bulkdock/openbind_a71ev2a_c1_scaffolds.sdf']

>  <fragmenstein_runtime>  (55) 
2.538256

$$$$
P26924
     RDKit          3D

 21 23  0  0  0  0  0  0  0  0999 V2000
    9.8870   14.0495   25.2942 O   0  0  0  0  0  0  0  0  0  0  0  0
    9.9303   13.3239   24.3843 C   0  0  0  0  0  0  0  0  0  0  0  0
   10.8889   13.2840   23.1912 N   0  0  0  0  0  0  0  0  0  0  0  0
   11.9419   14.1832   22.8092 C   0  0  0  0  0  0  0  0  0  0  0  0
   11.9852   14.4779   21.3190 C   0  0  0  0  0  0  0  0  0  0  0  0
   10.7556   15.1233   20.7768 C   0  0  0  0  0  0  0  0  0  0  0  0
   10.5735   15.6038   19.4651 C   0  0  0  0  0  0  0  0  0  0  0  0
    9.4826   16.4265   19.5598 C   0  0  0  0  0  0  0  0  0  0  0  0
    8.9896   16.2793   20.8187 N   0  0  0  0  0  0  0  0  0  0  0  0
    9.6926   15.3995   21.5413 N   0  0  0  0  0  0  0  0  0  0  0  0
    8.9573   12.1831   24.3907 C   0  0  0  0  0  0  0  0  0  0  0  0
    9.2563   10.9353   23.8463 C   0  0  0  0  0  0  0  0  0  0  0  0
    8.4626    9.8696   24.2144 C   0  0  0  0  0  0  0  0  0  0  0  0
    7.4132    9.9731   25.0610 N   0  0  0  0  0  0  0  0  0  0  0  0
    7.0895   11.2081   25.5223 C   0  0  0  0  0  0  0  0  0  0  0  0
    6.0197   11.3072   26.4512 N   0  0  0  0  0  0  0  0  0  0  0  0
    5.3580   12.4205   26.9127 C   0  0  0  0  0  0  0  0  0  0  0  0
    4.4220   11.9545   27.8118 C   0  0  0  0  0  0  0  0  0  0  0  0
    4.5057   10.6040   27.9521 N   0  0  0  0  0  0  0  0  0  0  0  0
    5.4518   10.2494   27.1140 C   0  0  0  0  0  0  0  0  0  0  0  0
    7.8160   12.3363   25.1866 C   0  0  0  0  0  0  0  0  0  0  0  0
  1  2  2  0
  2  3  1  0
  3  4  1  0
  4  5  1  0
  5  6  1  0
  6  7  1  0
  7  8  2  0
  8  9  1  0
  9 10  1  0
  2 11  1  0
 11 12  2  0
 12 13  1  0
 13 14  2  0
 14 15  1  0
 15 16  1  0
 16 17  1  0
 17 18  2  0
 18 19  1  0
 19 20  2  0
 15 21  2  0
 10  6  2  0
 21 11  1  0
 20 16  1  0
M  END
>  <ref_pdb>  (56) 
A3435a

>  <subsites>  (56) 
1 - Active Site

>  <HIPPO Compound ID>  (56) 
16361

>  <energy_score>  (56) 
-16.710466

>  <fragmenstein_mode>  (56) 
expansion

>  <scratch_subdir>  (56) 
/opt/xchem-fragalysis-2/maxwin/BulkDock/SCRATCH/511229/C16361-P182

>  <smiles>  (56) 
O=C(NCCc1cc[nH]n1)c1ccnc(-n2ccnc2)c1

>  <alias>  (56) 
None

>  <ref_mols>  (56) 
A0556a,A3435a

>  <inspiration_score>  (56) 
None

>  <tags>  (56) 
BulkDock Fragalysis export,fragmenstein_placed,openbind_a71ev2a_c1_scaffolds,openbind_a71ev2a_c1_knitwork_pure

>  <fragmenstein_outcome>  (56) 
acceptable

>  <fragmenstein_error>  (56) 


>  <distance_score>  (56) 
0.920213

>  <inchikey>  (56) 
ZZPZYEPSKIPXIU-UHFFFAOYSA-N

>  <name>  (56) 
P26924

>  <HIPPO Pose ID>  (56) 
26924

>  <Energy>  (56) 
55.214786

>  <exports>  (56) 
['/opt/xchem-fragalysis-2/maxwin/BulkDock/OUTPUTS/openbind_a71ev2a_c1_knitwork_pure_165VWF8.sdf', '/opt/xchem-fragalysis-2/maxwin/BulkDock/OUTPUTS/openbind_a71ev2a_c1_knitwork_pure_1B07PTU.sdf', '/opt/xchem-fragalysis-2/maxwin/BulkDock/OUTPUTS/openbind_a71ev2a_c1_knitwork_pure_1B07UWE.sdf', '/opt/xchem-fragalysis-2/maxwin/openbind-hippo/a71ev2a/openbind_a71ev2a_c1_scaffold_products.sdf', '/opt/xchem-fragalysis-2/maxwin/openbind-hippo/a71ev2a/cycle_01/bulkdock/openbind_a71ev2a_c1_scaffold_products.sdf', '/opt/xchem-fragalysis-2/maxwin/openbind-hippo/a71ev2a/cycle_01/bulkdock/openbind_a71ev2a_c1_scaffolds.sdf']

>  <fragmenstein_runtime>  (56) 
4.636339

$$$$
P27400
     RDKit          3D

 17 18  0  0  0  0  0  0  0  0999 V2000
   10.7769   14.4735   23.5670 O   0  0  0  0  0  0  0  0  0  0  0  0
    9.7384   14.2873   22.9347 C   0  0  0  0  0  0  0  0  0  0  0  0
    8.4915   13.6724   23.5265 C   0  0  0  0  0  0  0  0  0  0  0  0
    8.8017   12.9107   24.8147 C   0  0  0  0  0  0  0  0  0  0  0  0
    7.5965   12.6431   25.6944 C   0  0  0  0  0  0  0  0  0  0  0  0
    7.1601   11.3228   25.8943 C   0  0  0  0  0  0  0  0  0  0  0  0
    6.0762   11.0641   26.7336 C   0  0  0  0  0  0  0  0  0  0  0  0
    5.6978    9.8123   26.9996 F   0  0  0  0  0  0  0  0  0  0  0  0
    5.3705   12.0795   27.3433 C   0  0  0  0  0  0  0  0  0  0  0  0
    5.7953   13.3828   27.1671 C   0  0  0  0  0  0  0  0  0  0  0  0
    6.9346   13.6821   26.3910 C   0  0  0  0  0  0  0  0  0  0  0  0
    7.4944   14.9905   26.4431 N   0  0  0  0  0  0  0  0  0  0  0  0
    6.5086   16.0462   26.1208 C   0  0  0  0  0  0  0  0  0  0  0  0
    6.1545   16.9248   27.3191 C   0  0  0  0  0  0  0  0  0  0  0  0
    7.3446   17.4512   28.1201 C   0  0  0  0  0  0  0  0  0  0  0  0
    8.5854   16.5814   28.0022 C   0  0  0  0  0  0  0  0  0  0  0  0
    8.2365   15.1365   27.7129 C   0  0  0  0  0  0  0  0  0  0  0  0
  1  2  2  0
  2  3  1  0
  3  4  1  0
  4  5  1  0
  5  6  2  0
  6  7  1  0
  7  8  1  0
  7  9  2  0
  9 10  1  0
 10 11  2  0
 11 12  1  0
 12 13  1  0
 13 14  1  0
 14 15  1  0
 15 16  1  0
 16 17  1  0
 11  5  1  0
 17 12  1  0
M  END
>  <ref_pdb>  (57) 
A4320a

>  <subsites>  (57) 
1 - Active Site

>  <HIPPO Compound ID>  (57) 
70596

>  <energy_score>  (57) 
-30.96067

>  <fragmenstein_mode>  (57) 
expansion

>  <scratch_subdir>  (57) 
/opt/xchem-fragalysis-2/maxwin/BulkDock/SCRATCH/512168/C55223-P303

>  <smiles>  (57) 
O=CCCc1cc(F)ccc1N1CCCCC1

>  <alias>  (57) 
None

>  <ref_mols>  (57) 
A4237b,A4320a

>  <inspiration_score>  (57) 
None

>  <tags>  (57) 
BulkDock Fragalysis export,fragmenstein_placed,openbind_a71ev2a_c1_scaffolds,openbind_a71ev2a_c1_knitwork_pure

>  <fragmenstein_outcome>  (57) 
acceptable

>  <fragmenstein_error>  (57) 


>  <distance_score>  (57) 
0.997349

>  <inchikey>  (57) 
BQGWDOQDBRNDPW-UHFFFAOYSA-N

>  <name>  (57) 
P27400

>  <HIPPO Pose ID>  (57) 
27400

>  <Energy>  (57) 
27.023603

>  <exports>  (57) 
['/opt/xchem-fragalysis-2/maxwin/BulkDock/OUTPUTS/openbind_a71ev2a_c1_knitwork_pure_165VWF8.sdf', '/opt/xchem-fragalysis-2/maxwin/BulkDock/OUTPUTS/openbind_a71ev2a_c1_knitwork_pure_1B07PTU.sdf', '/opt/xchem-fragalysis-2/maxwin/BulkDock/OUTPUTS/openbind_a71ev2a_c1_knitwork_pure_1B07UWE.sdf', '/opt/xchem-fragalysis-2/maxwin/openbind-hippo/a71ev2a/openbind_a71ev2a_c1_scaffold_products.sdf', '/opt/xchem-fragalysis-2/maxwin/openbind-hippo/a71ev2a/cycle_01/bulkdock/openbind_a71ev2a_c1_scaffold_products.sdf', '/opt/xchem-fragalysis-2/maxwin/openbind-hippo/a71ev2a/cycle_01/bulkdock/openbind_a71ev2a_c1_scaffolds.sdf']

>  <fragmenstein_runtime>  (57) 
8.513255

$$$$
P28690
     RDKit          3D

 14 15  0  0  0  0  0  0  0  0999 V2000
    5.8901   13.2059   26.5359 C   0  0  0  0  0  0  0  0  0  0  0  0
    6.6368   12.1034   25.7805 C   0  0  2  0  0  0  0  0  0  0  0  0
    6.2697   10.8243   26.4856 C   0  0  0  0  0  0  0  0  0  0  0  0
    6.0128    9.7764   25.9052 O   0  0  0  0  0  0  0  0  0  0  0  0
    8.0954   12.3095   25.7874 N   0  0  0  0  0  0  0  0  0  0  0  0
    8.5434   13.6770   25.4699 C   0  0  0  0  0  0  0  0  0  0  0  0
    9.9601   13.6240   24.9265 C   0  0  0  0  0  0  0  0  0  0  0  0
    9.9769   12.2457   24.3941 C   0  0  0  0  0  0  0  0  0  0  0  0
   10.9017   11.6741   23.5424 C   0  0  0  0  0  0  0  0  0  0  0  0
   10.7259   10.3431   23.2083 C   0  0  0  0  0  0  0  0  0  0  0  0
   11.8783    9.5233   22.0056 Br  0  0  0  0  0  0  0  0  0  0  0  0
    9.6823    9.5981   23.7291 C   0  0  0  0  0  0  0  0  0  0  0  0
    8.7758   10.2002   24.5919 C   0  0  0  0  0  0  0  0  0  0  0  0
    8.8970   11.5338   24.9179 C   0  0  0  0  0  0  0  0  0  0  0  0
  2  1  1  1
  2  3  1  0
  3  4  2  0
  2  5  1  0
  5  6  1  0
  6  7  1  0
  7  8  1  0
  8  9  2  0
  9 10  1  0
 10 11  1  0
 10 12  2  0
 12 13  1  0
 13 14  2  0
 14  5  1  0
 14  8  1  0
M  END
>  <ref_pdb>  (58) 
A1778a

>  <subsites>  (58) 
1 - Active Site

>  <HIPPO Compound ID>  (58) 
53777

>  <energy_score>  (58) 
-15.552726

>  <fragmenstein_mode>  (58) 
expansion

>  <scratch_subdir>  (58) 
/opt/xchem-fragalysis-2/maxwin/BulkDock/SCRATCH/512168/C48580-P124

>  <smiles>  (58) 
C[C@H](C=O)N1CCc2cc(Br)ccc21

>  <alias>  (58) 
None

>  <ref_mols>  (58) 
A4509a,A1778a

>  <inspiration_score>  (58) 
None

>  <tags>  (58) 
BulkDock Fragalysis export,fragmenstein_placed,openbind_a71ev2a_c1_scaffolds,openbind_a71ev2a_c1_knitwork_pure

>  <fragmenstein_outcome>  (58) 
acceptable

>  <fragmenstein_error>  (58) 


>  <distance_score>  (58) 
0.908276

>  <inchikey>  (58) 
VXPPOOOFALPUBZ-UHFFFAOYSA-N

>  <name>  (58) 
P28690

>  <HIPPO Pose ID>  (58) 
28690

>  <Energy>  (58) 
63.889973

>  <exports>  (58) 
['/opt/xchem-fragalysis-2/maxwin/BulkDock/OUTPUTS/openbind_a71ev2a_c1_knitwork_pure_165VWF8.sdf', '/opt/xchem-fragalysis-2/maxwin/BulkDock/OUTPUTS/openbind_a71ev2a_c1_knitwork_pure_1B07PTU.sdf', '/opt/xchem-fragalysis-2/maxwin/BulkDock/OUTPUTS/openbind_a71ev2a_c1_knitwork_pure_1B07UWE.sdf', '/opt/xchem-fragalysis-2/maxwin/openbind-hippo/a71ev2a/openbind_a71ev2a_c1_scaffold_products.sdf', '/opt/xchem-fragalysis-2/maxwin/openbind-hippo/a71ev2a/cycle_01/bulkdock/openbind_a71ev2a_c1_scaffold_products.sdf', '/opt/xchem-fragalysis-2/maxwin/openbind-hippo/a71ev2a/cycle_01/bulkdock/openbind_a71ev2a_c1_scaffolds.sdf']

>  <fragmenstein_runtime>  (58) 
1.098594

$$$$
P30306
     RDKit          3D

 22 24  0  0  0  0  0  0  0  0999 V2000
   18.3406   -6.0121   19.5814 C   0  0  0  0  0  0  0  0  0  0  0  0
   18.0468   -5.4201   18.3212 O   0  0  0  0  0  0  0  0  0  0  0  0
   16.7210   -5.4969   18.0228 C   0  0  0  0  0  0  0  0  0  0  0  0
   16.1501   -6.6834   17.5790 C   0  0  0  0  0  0  0  0  0  0  0  0
   14.8577   -6.8077   17.2021 N   0  0  0  0  0  0  0  0  0  0  0  0
   14.1088   -5.6871   17.2790 C   0  0  0  0  0  0  0  0  0  0  0  0
   14.5928   -4.4526   17.6867 C   0  0  0  0  0  0  0  0  0  0  0  0
   15.9415   -4.3442   18.0580 C   0  0  0  0  0  0  0  0  0  0  0  0
   16.5539   -3.0095   18.3651 C   0  0  0  0  0  0  0  0  0  0  0  0
   16.9130   -2.7141   19.7774 N   0  0  0  0  0  0  0  0  0  0  0  0
   18.4727   -2.1202   20.0102 S   0  0  0  0  0  0  0  0  0  0  0  0
   18.4425   -0.7447   19.5848 O   0  0  0  0  0  0  0  0  0  0  0  0
   19.3986   -3.0799   19.4691 O   0  0  0  0  0  0  0  0  0  0  0  0
   18.7855   -2.1595   21.7256 C   0  0  0  0  0  0  0  0  0  0  0  0
   18.9520   -3.2302   22.5849 C   0  0  0  0  0  0  0  0  0  0  0  0
   19.2987   -2.8348   23.8487 N   0  0  0  0  0  0  0  0  0  0  0  0
   19.3439   -1.5231   23.7818 C   0  0  0  0  0  0  0  0  0  0  0  0
   19.6461   -0.5621   24.7769 C   0  0  0  0  0  0  0  0  0  0  0  0
   19.5282    0.7400   24.4916 C   0  0  0  0  0  0  0  0  0  0  0  0
   19.1025    1.0822   23.1171 C   0  0  0  0  0  0  0  0  0  0  0  0
   18.8455    0.2463   22.1628 N   0  0  0  0  0  0  0  0  0  0  0  0
   18.9903   -1.0583   22.5190 N   0  0  0  0  0  0  0  0  0  0  0  0
  1  2  1  0
  2  3  1  0
  3  4  2  0
  4  5  1  0
  5  6  2  0
  6  7  1  0
  7  8  2  0
  8  9  1  0
  9 10  1  0
 10 11  1  0
 11 12  2  0
 11 13  2  0
 11 14  1  0
 14 15  2  0
 15 16  1  0
 16 17  2  0
 17 18  1  0
 18 19  2  0
 19 20  1  0
 20 21  2  0
 21 22  1  0
  8  3  1  0
 22 14  1  0
 22 17  1  0
M  END
>  <ref_pdb>  (59) 
A1105b

>  <subsites>  (59) 
2 - A3977/A/202/1

>  <HIPPO Compound ID>  (59) 
76574

>  <energy_score>  (59) 
-33.212312

>  <fragmenstein_mode>  (59) 
expansion

>  <scratch_subdir>  (59) 
/opt/xchem-fragalysis-2/maxwin/BulkDock/SCRATCH/512169/C76574-P103

>  <smiles>  (59) 
COc1cnccc1CNS(=O)(=O)c1cnc2cccnn12

>  <alias>  (59) 
None

>  <ref_mols>  (59) 
A0202a,A1105b

>  <inspiration_score>  (59) 
None

>  <tags>  (59) 
BulkDock Fragalysis export,fragmenstein_placed,openbind_a71ev2a_c1_scaffolds,openbind_a71ev2a_c1_knitwork_pure

>  <fragmenstein_outcome>  (59) 
acceptable

>  <fragmenstein_error>  (59) 


>  <distance_score>  (59) 
0.883355

>  <inchikey>  (59) 
TZXZNVJKNDRZQE-UHFFFAOYSA-N

>  <name>  (59) 
P30306

>  <HIPPO Pose ID>  (59) 
30306

>  <Energy>  (59) 
-66.538579

>  <exports>  (59) 
['/opt/xchem-fragalysis-2/maxwin/BulkDock/OUTPUTS/openbind_a71ev2a_c1_knitwork_pure_165VWF8.sdf', '/opt/xchem-fragalysis-2/maxwin/BulkDock/OUTPUTS/openbind_a71ev2a_c1_knitwork_pure_1B07PTU.sdf', '/opt/xchem-fragalysis-2/maxwin/BulkDock/OUTPUTS/openbind_a71ev2a_c1_knitwork_pure_1B07UWE.sdf', '/opt/xchem-fragalysis-2/maxwin/openbind-hippo/a71ev2a/openbind_a71ev2a_c1_scaffold_products.sdf', '/opt/xchem-fragalysis-2/maxwin/openbind-hippo/a71ev2a/cycle_01/bulkdock/openbind_a71ev2a_c1_scaffold_products.sdf', '/opt/xchem-fragalysis-2/maxwin/openbind-hippo/a71ev2a/cycle_01/bulkdock/openbind_a71ev2a_c1_scaffolds.sdf']

>  <fragmenstein_runtime>  (59) 
3.042564

$$$$
P31267
     RDKit          3D

 20 22  0  0  0  0  0  0  0  0999 V2000
    4.7473   10.7509   28.3067 C   0  0  0  0  0  0  0  0  0  0  0  0
    4.8959   11.9042   27.4817 O   0  0  0  0  0  0  0  0  0  0  0  0
    5.9127   11.7989   26.5710 C   0  0  0  0  0  0  0  0  0  0  0  0
    6.1591   10.6561   25.8232 C   0  0  0  0  0  0  0  0  0  0  0  0
    7.2544   10.5397   24.9554 C   0  0  0  0  0  0  0  0  0  0  0  0
    8.1052   11.6306   24.8710 C   0  0  0  0  0  0  0  0  0  0  0  0
    9.2862   11.8035   24.1850 N   0  0  0  0  0  0  0  0  0  0  0  0
    9.8616   12.9871   24.5873 C   0  0  0  0  0  0  0  0  0  0  0  0
   11.2818   13.3294   24.3482 C   0  0  0  0  0  0  0  0  0  0  0  0
   11.7025   13.1480   22.9846 N   0  0  0  0  0  0  0  0  0  0  0  0
   10.9373   14.0218   22.1108 C   0  0  0  0  0  0  0  0  0  0  0  0
   11.7952   14.5563   20.9745 C   0  0  0  0  0  0  0  0  0  0  0  0
   10.9331   15.4320   20.1903 C   0  0  0  0  0  0  0  0  0  0  0  0
   10.5203   15.4585   18.8929 C   0  0  0  0  0  0  0  0  0  0  0  0
    9.5580   16.4116   18.7568 N   0  0  0  0  0  0  0  0  0  0  0  0
    9.4924   16.9849   19.9363 C   0  0  0  0  0  0  0  0  0  0  0  0
   10.3007   16.4346   20.8660 O   0  0  0  0  0  0  0  0  0  0  0  0
    8.8973   13.7025   25.2632 C   0  0  0  0  0  0  0  0  0  0  0  0
    7.8345   12.8196   25.5484 C   0  0  0  0  0  0  0  0  0  0  0  0
    6.7105   12.9200   26.3891 C   0  0  0  0  0  0  0  0  0  0  0  0
  1  2  1  0
  2  3  1  0
  3  4  2  0
  4  5  1  0
  5  6  2  0
  6  7  1  0
  7  8  1  0
  8  9  1  0
  9 10  1  0
 10 11  1  0
 11 12  1  0
 12 13  1  0
 13 14  2  0
 14 15  1  0
 15 16  2  0
 16 17  1  0
  8 18  2  0
 18 19  1  0
 19 20  2  0
 20  3  1  0
 19  6  1  0
 17 13  1  0
M  END
>  <ref_pdb>  (60) 
A3568a

>  <subsites>  (60) 
1 - Active Site

>  <HIPPO Compound ID>  (60) 
45878

>  <energy_score>  (60) 
-15.480944

>  <fragmenstein_mode>  (60) 
expansion

>  <scratch_subdir>  (60) 
/opt/xchem-fragalysis-2/maxwin/BulkDock/SCRATCH/512169/C78640-P220

>  <smiles>  (60) 
COc1ccc2[nH]c(CNCCc3cnco3)cc2c1

>  <alias>  (60) 
None

>  <ref_mols>  (60) 
A3623a,A3568a

>  <inspiration_score>  (60) 
None

>  <tags>  (60) 
BulkDock Fragalysis export,fragmenstein_placed,openbind_a71ev2a_c1_scaffolds,openbind_a71ev2a_c1_knitwork_pure

>  <fragmenstein_outcome>  (60) 
acceptable

>  <fragmenstein_error>  (60) 


>  <distance_score>  (60) 
0.910787

>  <inchikey>  (60) 
ZSXTWNYTZPYIOF-UHFFFAOYSA-N

>  <name>  (60) 
P31267

>  <HIPPO Pose ID>  (60) 
31267

>  <Energy>  (60) 
28.30696

>  <exports>  (60) 
['/opt/xchem-fragalysis-2/maxwin/BulkDock/OUTPUTS/openbind_a71ev2a_c1_knitwork_pure_165VWF8.sdf', '/opt/xchem-fragalysis-2/maxwin/BulkDock/OUTPUTS/openbind_a71ev2a_c1_knitwork_pure_1B07PTU.sdf', '/opt/xchem-fragalysis-2/maxwin/BulkDock/OUTPUTS/openbind_a71ev2a_c1_knitwork_pure_1B07UWE.sdf', '/opt/xchem-fragalysis-2/maxwin/openbind-hippo/a71ev2a/openbind_a71ev2a_c1_scaffold_products.sdf', '/opt/xchem-fragalysis-2/maxwin/openbind-hippo/a71ev2a/cycle_01/bulkdock/openbind_a71ev2a_c1_scaffold_products.sdf', '/opt/xchem-fragalysis-2/maxwin/openbind-hippo/a71ev2a/cycle_01/bulkdock/openbind_a71ev2a_c1_scaffolds.sdf']

>  <fragmenstein_runtime>  (60) 
2.31858

$$$$
P31487
     RDKit          3D

 22 24  0  0  0  0  0  0  0  0999 V2000
   20.7968   14.9636    2.4417 C   0  0  0  0  0  0  0  0  0  0  0  0
   22.2271   14.4908    2.6532 C   0  0  0  0  0  0  0  0  0  0  0  0
   22.7206   13.7353    1.4707 C   0  0  0  0  0  0  0  0  0  0  0  0
   22.0892   13.5570    0.3262 N   0  0  0  0  0  0  0  0  0  0  0  0
   22.9092   12.8488   -0.5176 N   0  0  0  0  0  0  0  0  0  0  0  0
   24.0263   12.6051    0.1270 C   0  0  0  0  0  0  0  0  0  0  0  0
   23.9419   13.1252    1.3878 N   0  0  0  0  0  0  0  0  0  0  0  0
   25.0237   13.1616    2.3431 C   0  0  0  0  0  0  0  0  0  0  0  0
   26.3247   12.4968    1.8524 C   0  0  2  0  0  0  0  0  0  0  0  0
   27.4918   13.1138    2.4628 N   0  0  0  0  0  0  0  0  0  0  0  0
   28.9615   12.6247    2.5461 C   0  0  0  0  0  0  0  0  0  0  0  0
   29.4430   11.6192    2.2059 O   0  0  0  0  0  0  0  0  0  0  0  0
   29.7477   13.7782    3.1765 C   0  0  0  0  0  0  0  0  0  0  0  0
   31.0314   13.2965    3.8596 C   0  0  0  0  0  0  0  0  0  0  0  0
   31.7489   14.3579    4.7189 C   0  0  1  0  0  0  0  0  0  0  0  0
   32.1096   15.6257    3.9380 C   0  0  0  0  0  0  0  0  0  0  0  0
   32.8992   16.6051    4.8173 C   0  0  0  0  0  0  0  0  0  0  0  0
   32.6096   16.4452    6.3133 C   0  0  0  0  0  0  0  0  0  0  0  0
   31.2244   16.0554    6.5181 N   0  0  0  0  0  0  0  0  0  0  0  0
   30.9588   14.7117    5.9995 C   0  0  0  0  0  0  0  0  0  0  0  0
   26.4749   12.5218    0.3223 C   0  0  0  0  0  0  0  0  0  0  0  0
   25.2471   11.9313   -0.3635 C   0  0  0  0  0  0  0  0  0  0  0  0
  1  2  1  0
  2  3  1  0
  3  4  2  0
  4  5  1  0
  5  6  2  0
  6  7  1  0
  7  8  1  0
  8  9  1  0
  9 10  1  1
 10 11  1  0
 11 12  2  0
 11 13  1  0
 13 14  1  0
 15 14  1  6
 15 16  1  0
 16 17  1  0
 17 18  1  0
 18 19  1  0
 19 20  1  0
  9 21  1  0
 21 22  1  0
  7  3  1  0
 20 15  1  0
 22  6  1  0
M  END
>  <ref_pdb>  (61) 
A0239a

>  <subsites>  (61) 
1 - Active Site,6 - A0486/A/147/1

>  <HIPPO Compound ID>  (61) 
76291

>  <energy_score>  (61) 
-24.19088

>  <fragmenstein_mode>  (61) 
expansion

>  <scratch_subdir>  (61) 
/opt/xchem-fragalysis-2/maxwin/BulkDock/SCRATCH/512169/C57140-P51

>  <smiles>  (61) 
CCc1nnc2n1C[C@H](NC(=O)CC[C@H]1CCCNC1)CC2

>  <alias>  (61) 
None

>  <ref_mols>  (61) 
A3849a,A4836a,A4874a,A0239a,A4712a

>  <inspiration_score>  (61) 
None

>  <tags>  (61) 
BulkDock Fragalysis export,fragmenstein_placed,openbind_a71ev2a_c1_scaffolds,openbind_a71ev2a_c1_knitwork_pure

>  <fragmenstein_outcome>  (61) 
acceptable

>  <fragmenstein_error>  (61) 


>  <distance_score>  (61) 
0.507516

>  <inchikey>  (61) 
HLGWOCDYUXZSIL-UHFFFAOYSA-N

>  <name>  (61) 
P31487

>  <HIPPO Pose ID>  (61) 
31487

>  <Energy>  (61) 
8.089681

>  <exports>  (61) 
['/opt/xchem-fragalysis-2/maxwin/BulkDock/OUTPUTS/openbind_a71ev2a_c1_knitwork_pure_165VWF8.sdf', '/opt/xchem-fragalysis-2/maxwin/BulkDock/OUTPUTS/openbind_a71ev2a_c1_knitwork_pure_1B07PTU.sdf', '/opt/xchem-fragalysis-2/maxwin/BulkDock/OUTPUTS/openbind_a71ev2a_c1_knitwork_pure_1B07UWE.sdf', '/opt/xchem-fragalysis-2/maxwin/openbind-hippo/a71ev2a/openbind_a71ev2a_c1_scaffold_products.sdf', '/opt/xchem-fragalysis-2/maxwin/openbind-hippo/a71ev2a/cycle_01/bulkdock/openbind_a71ev2a_c1_scaffold_products.sdf', '/opt/xchem-fragalysis-2/maxwin/openbind-hippo/a71ev2a/cycle_01/bulkdock/openbind_a71ev2a_c1_scaffolds.sdf']

>  <fragmenstein_runtime>  (61) 
3.642615

$$$$
P31494
     RDKit          3D

 18 19  0  0  0  0  0  0  0  0999 V2000
   18.6003   21.3132    1.4041 C   0  0  0  0  0  0  0  0  0  0  0  0
   19.6815   20.8997    2.2403 O   0  0  0  0  0  0  0  0  0  0  0  0
   20.2432   19.7131    1.8689 C   0  0  0  0  0  0  0  0  0  0  0  0
   19.8780   19.0353    0.9182 O   0  0  0  0  0  0  0  0  0  0  0  0
   21.3123   19.3905    2.7711 C   0  0  0  0  0  0  0  0  0  0  0  0
   21.6781   20.1253    3.8750 N   0  0  0  0  0  0  0  0  0  0  0  0
   22.6951   19.4746    4.5102 C   0  0  0  0  0  0  0  0  0  0  0  0
   23.3055   19.9602    5.8384 C   0  0  0  0  0  0  0  0  0  0  0  0
   24.3145   19.3394    6.5293 C   0  0  0  0  0  0  0  0  0  0  0  0
   24.5160   20.0398    7.6824 O   0  0  0  0  0  0  0  0  0  0  0  0
   23.6149   21.0615    7.6007 C   0  0  0  0  0  0  0  0  0  0  0  0
   22.8808   21.0791    6.5091 N   0  0  0  0  0  0  0  0  0  0  0  0
   23.0373   18.3882    3.8576 N   0  0  0  0  0  0  0  0  0  0  0  0
   22.1801   18.3079    2.7803 C   0  0  0  0  0  0  0  0  0  0  0  0
   22.2116   17.1320    1.8516 C   0  0  0  0  0  0  0  0  0  0  0  0
   23.3953   16.1690    2.0641 C   0  0  0  0  0  0  0  0  0  0  0  0
   23.0906   14.8120    1.4288 C   0  0  0  0  0  0  0  0  0  0  0  0
   24.6941   16.7409    1.4926 C   0  0  0  0  0  0  0  0  0  0  0  0
  1  2  1  0
  2  3  1  0
  3  4  2  0
  3  5  1  0
  5  6  1  0
  6  7  1  0
  7  8  1  0
  8  9  2  0
  9 10  1  0
 10 11  1  0
 11 12  2  0
  7 13  2  0
 13 14  1  0
 14 15  1  0
 15 16  1  0
 16 17  1  0
 16 18  1  0
 14  5  2  0
 12  8  1  0
M  END
>  <ref_pdb>  (62) 
A0309a

>  <subsites>  (62) 
1 - Active Site,6 - A0486/A/147/1

>  <HIPPO Compound ID>  (62) 
79400

>  <energy_score>  (62) 
-35.96482

>  <fragmenstein_mode>  (62) 
expansion

>  <scratch_subdir>  (62) 
/opt/xchem-fragalysis-2/maxwin/BulkDock/SCRATCH/511232/C79212-P36

>  <smiles>  (62) 
COC(=O)c1[nH]c(-c2cocn2)nc1CC(C)C

>  <alias>  (62) 
None

>  <ref_mols>  (62) 
A3568a,A0309a

>  <inspiration_score>  (62) 
None

>  <tags>  (62) 
BulkDock Fragalysis export,fragmenstein_placed,openbind_a71ev2a_c1_scaffolds,openbind_a71ev2a_c1_knitwork_pure

>  <fragmenstein_outcome>  (62) 
acceptable

>  <fragmenstein_error>  (62) 


>  <distance_score>  (62) 
0.466843

>  <inchikey>  (62) 
SYIPTBSODVTYNX-UHFFFAOYSA-N

>  <name>  (62) 
P31494

>  <HIPPO Pose ID>  (62) 
31494

>  <Energy>  (62) 
-7.774803

>  <exports>  (62) 
['/opt/xchem-fragalysis-2/maxwin/BulkDock/OUTPUTS/openbind_a71ev2a_c1_knitwork_pure_165VWF8.sdf', '/opt/xchem-fragalysis-2/maxwin/BulkDock/OUTPUTS/openbind_a71ev2a_c1_knitwork_pure_1B07PTU.sdf', '/opt/xchem-fragalysis-2/maxwin/BulkDock/OUTPUTS/openbind_a71ev2a_c1_knitwork_pure_1B07UWE.sdf', '/opt/xchem-fragalysis-2/maxwin/openbind-hippo/a71ev2a/openbind_a71ev2a_c1_scaffold_products.sdf', '/opt/xchem-fragalysis-2/maxwin/openbind-hippo/a71ev2a/cycle_01/bulkdock/openbind_a71ev2a_c1_scaffold_products.sdf', '/opt/xchem-fragalysis-2/maxwin/openbind-hippo/a71ev2a/cycle_01/bulkdock/openbind_a71ev2a_c1_scaffolds.sdf']

>  <fragmenstein_runtime>  (62) 
2.154525

$$$$
P31842
     RDKit          3D

 18 20  0  0  0  0  0  0  0  0999 V2000
   10.0575   13.7630   24.9641 C   0  0  0  0  0  0  0  0  0  0  0  0
    9.6894   12.4196   24.4539 C   0  0  0  0  0  0  0  0  0  0  0  0
    8.6980   11.7174   25.1379 C   0  0  0  0  0  0  0  0  0  0  0  0
    8.3612   10.4437   24.8797 N   0  0  0  0  0  0  0  0  0  0  0  0
    9.0525    9.8480   23.8855 C   0  0  0  0  0  0  0  0  0  0  0  0
   10.0188   10.4791   23.1155 C   0  0  0  0  0  0  0  0  0  0  0  0
   10.3362   11.8137   23.3645 C   0  0  0  0  0  0  0  0  0  0  0  0
   11.3475   12.4454   22.5891 N   0  0  0  0  0  0  0  0  0  0  0  0
   10.9254   13.6832   21.9304 C   0  0  0  0  0  0  0  0  0  0  0  0
   11.9760   14.3510   21.0678 C   0  0  0  0  0  0  0  0  0  0  0  0
   12.0012   14.1517   19.6857 C   0  0  0  0  0  0  0  0  0  0  0  0
   12.6430   15.0331   18.8115 C   0  0  0  0  0  0  0  0  0  0  0  0
   13.3110   16.1410   19.3361 C   0  0  0  0  0  0  0  0  0  0  0  0
   13.9935   17.2491   18.7706 C   0  0  0  0  0  0  0  0  0  0  0  0
   14.4507   18.0247   19.8097 C   0  0  0  0  0  0  0  0  0  0  0  0
   14.1063   17.3978   20.9747 N   0  0  0  0  0  0  0  0  0  0  0  0
   13.3673   16.2752   20.7194 C   0  0  0  0  0  0  0  0  0  0  0  0
   12.7470   15.3850   21.6044 C   0  0  0  0  0  0  0  0  0  0  0  0
  1  2  1  0
  2  3  2  0
  3  4  1  0
  4  5  2  0
  5  6  1  0
  6  7  2  0
  7  8  1  0
  8  9  1  0
  9 10  1  0
 10 11  2  0
 11 12  1  0
 12 13  2  0
 13 14  1  0
 14 15  2  0
 15 16  1  0
 16 17  1  0
 17 18  2  0
  7  2  1  0
 18 10  1  0
 17 13  1  0
M  END
>  <ref_pdb>  (63) 
A2629a

>  <subsites>  (63) 
1 - Active Site

>  <HIPPO Compound ID>  (63) 
50246

>  <energy_score>  (63) 
-11.979469

>  <fragmenstein_mode>  (63) 
expansion

>  <scratch_subdir>  (63) 
/opt/xchem-fragalysis-2/maxwin/BulkDock/SCRATCH/511232/C53105-P135

>  <smiles>  (63) 
Cc1cnccc1NCc1ccc2cc[nH]c2c1

>  <alias>  (63) 
None

>  <ref_mols>  (63) 
A3568a,A2629a

>  <inspiration_score>  (63) 
None

>  <tags>  (63) 
BulkDock Fragalysis export,fragmenstein_placed,openbind_a71ev2a_c1_scaffolds,openbind_a71ev2a_c1_knitwork_pure

>  <fragmenstein_outcome>  (63) 
acceptable

>  <fragmenstein_error>  (63) 


>  <distance_score>  (63) 
0.969415

>  <inchikey>  (63) 
AGWJYAALTRFIFA-UHFFFAOYSA-N

>  <name>  (63) 
P31842

>  <HIPPO Pose ID>  (63) 
31842

>  <Energy>  (63) 
41.233135

>  <exports>  (63) 
['/opt/xchem-fragalysis-2/maxwin/BulkDock/OUTPUTS/openbind_a71ev2a_c1_knitwork_pure_165VWF8.sdf', '/opt/xchem-fragalysis-2/maxwin/BulkDock/OUTPUTS/openbind_a71ev2a_c1_knitwork_pure_1B07PTU.sdf', '/opt/xchem-fragalysis-2/maxwin/BulkDock/OUTPUTS/openbind_a71ev2a_c1_knitwork_pure_1B07UWE.sdf', '/opt/xchem-fragalysis-2/maxwin/openbind-hippo/a71ev2a/openbind_a71ev2a_c1_scaffold_products.sdf', '/opt/xchem-fragalysis-2/maxwin/openbind-hippo/a71ev2a/cycle_01/bulkdock/openbind_a71ev2a_c1_scaffold_products.sdf', '/opt/xchem-fragalysis-2/maxwin/openbind-hippo/a71ev2a/cycle_01/bulkdock/openbind_a71ev2a_c1_scaffolds.sdf']

>  <fragmenstein_runtime>  (63) 
3.525918

$$$$
P31846
     RDKit          3D

 24 27  0  0  0  0  0  0  0  0999 V2000
   10.6877   15.0658   22.9114 O   0  0  0  0  0  0  0  0  0  0  0  0
   11.0139   14.1329   22.3436 C   0  0  0  0  0  0  0  0  0  0  0  0
   10.6399   12.6383   22.5663 N   0  0  0  0  0  0  0  0  0  0  0  0
    9.7428   12.0593   23.4529 C   0  0  0  0  0  0  0  0  0  0  0  0
    9.7330   10.6756   23.5917 C   0  0  0  0  0  0  0  0  0  0  0  0
    8.8145   10.0564   24.4465 C   0  0  0  0  0  0  0  0  0  0  0  0
    7.8630   10.8353   25.1322 C   0  0  0  0  0  0  0  0  0  0  0  0
    6.7762   10.5560   26.0080 C   0  0  0  0  0  0  0  0  0  0  0  0
    6.1091   11.7287   26.2586 C   0  0  0  0  0  0  0  0  0  0  0  0
    6.7342   12.6978   25.5331 N   0  0  0  0  0  0  0  0  0  0  0  0
    7.8643   12.2089   24.9245 C   0  0  0  0  0  0  0  0  0  0  0  0
    8.8204   12.8589   24.1370 C   0  0  0  0  0  0  0  0  0  0  0  0
   11.9999   13.9756   21.1597 N   0  0  0  0  0  0  0  0  0  0  0  0
   12.7009   14.9712   20.3910 C   0  0  1  0  0  0  0  0  0  0  0  0
   12.3582   15.0104   18.9158 C   0  0  0  0  0  0  0  0  0  0  0  0
   13.1777   16.2152   18.4620 C   0  0  0  0  0  0  0  0  0  0  0  0
   13.0238   17.1665   19.5643 N   0  0  0  0  0  0  0  0  0  0  0  0
   13.8554   18.2707   19.5750 C   0  0  0  0  0  0  0  0  0  0  0  0
   13.7402   19.2281   20.5834 C   0  0  0  0  0  0  0  0  0  0  0  0
   14.5662   20.3514   20.5869 C   0  0  0  0  0  0  0  0  0  0  0  0
   15.4900   20.5106   19.5671 C   0  0  0  0  0  0  0  0  0  0  0  0
   15.5338   19.5399   18.5855 C   0  0  0  0  0  0  0  0  0  0  0  0
   14.7410   18.4475   18.5697 N   0  0  0  0  0  0  0  0  0  0  0  0
   12.7793   16.4392   20.8308 C   0  0  0  0  0  0  0  0  0  0  0  0
  1  2  2  0
  2  3  1  0
  3  4  1  0
  4  5  2  0
  5  6  1  0
  6  7  2  0
  7  8  1  0
  8  9  2  0
  9 10  1  0
 10 11  1  0
 11 12  2  0
  2 13  1  0
 14 13  1  1
 14 15  1  0
 15 16  1  0
 16 17  1  0
 17 18  1  0
 18 19  2  0
 19 20  1  0
 20 21  2  0
 21 22  1  0
 22 23  2  0
 17 24  1  0
 12  4  1  0
 24 14  1  0
 11  7  1  0
 23 18  1  0
M  END
>  <ref_pdb>  (64) 
A2629a

>  <subsites>  (64) 
1 - Active Site

>  <HIPPO Compound ID>  (64) 
48099

>  <energy_score>  (64) 
-7.639077

>  <fragmenstein_mode>  (64) 
expansion

>  <scratch_subdir>  (64) 
/opt/xchem-fragalysis-2/maxwin/BulkDock/SCRATCH/511232/C53112-P135

>  <smiles>  (64) 
O=C(Nc1ccc2cc[nH]c2c1)N[C@H]1CCN(c2ccccn2)C1

>  <alias>  (64) 
None

>  <ref_mols>  (64) 
A3568a,A2629a

>  <inspiration_score>  (64) 
None

>  <tags>  (64) 
BulkDock Fragalysis export,fragmenstein_placed,openbind_a71ev2a_c1_scaffolds,openbind_a71ev2a_c1_knitwork_pure

>  <fragmenstein_outcome>  (64) 
acceptable

>  <fragmenstein_error>  (64) 


>  <distance_score>  (64) 
0.885981

>  <inchikey>  (64) 
CYXFROYLOHDBPB-UHFFFAOYSA-N

>  <name>  (64) 
P31846

>  <HIPPO Pose ID>  (64) 
31846

>  <Energy>  (64) 
-19.14851

>  <exports>  (64) 
['/opt/xchem-fragalysis-2/maxwin/BulkDock/OUTPUTS/openbind_a71ev2a_c1_knitwork_pure_165VWF8.sdf', '/opt/xchem-fragalysis-2/maxwin/BulkDock/OUTPUTS/openbind_a71ev2a_c1_knitwork_pure_1B07PTU.sdf', '/opt/xchem-fragalysis-2/maxwin/BulkDock/OUTPUTS/openbind_a71ev2a_c1_knitwork_pure_1B07UWE.sdf', '/opt/xchem-fragalysis-2/maxwin/openbind-hippo/a71ev2a/openbind_a71ev2a_c1_scaffold_products.sdf', '/opt/xchem-fragalysis-2/maxwin/openbind-hippo/a71ev2a/cycle_01/bulkdock/openbind_a71ev2a_c1_scaffold_products.sdf', '/opt/xchem-fragalysis-2/maxwin/openbind-hippo/a71ev2a/cycle_01/bulkdock/openbind_a71ev2a_c1_scaffolds.sdf']

>  <fragmenstein_runtime>  (64) 
6.516094

$$$$
P33051
     RDKit          3D

 19 21  0  0  0  0  0  0  0  0999 V2000
    4.9686   13.6363   27.7935 O   0  0  0  0  0  0  0  0  0  0  0  0
    4.5991   12.5429   27.5896 C   0  0  0  0  0  0  0  0  0  0  0  0
    3.3084   12.0020   28.2067 C   0  0  0  0  0  0  0  0  0  0  0  0
    3.4896   10.6664   28.8259 C   0  0  0  0  0  0  0  0  0  0  0  0
    3.7945   10.3155   30.1204 C   0  0  0  0  0  0  0  0  0  0  0  0
    3.9044    8.9575   30.1749 O   0  0  0  0  0  0  0  0  0  0  0  0
    3.6473    8.5531   28.9006 C   0  0  0  0  0  0  0  0  0  0  0  0
    3.3981    9.5273   28.0532 N   0  0  0  0  0  0  0  0  0  0  0  0
    5.1863   11.4329   26.6589 N   0  0  0  0  0  0  0  0  0  0  0  0
    6.3510   11.4155   25.8980 C   0  0  0  0  0  0  0  0  0  0  0  0
    7.0670   12.5904   25.6415 C   0  0  0  0  0  0  0  0  0  0  0  0
    8.2565   12.5479   24.9136 C   0  0  0  0  0  0  0  0  0  0  0  0
    8.7277   11.3155   24.4964 C   0  0  0  0  0  0  0  0  0  0  0  0
    8.0264   10.1384   24.7545 C   0  0  0  0  0  0  0  0  0  0  0  0
    6.8149   10.1827   25.4206 C   0  0  0  0  0  0  0  0  0  0  0  0
    8.7629    8.9503   24.2229 C   0  0  1  0  0  0  0  0  0  0  0  0
    8.2843    8.4835   23.0513 F   0  0  0  0  0  0  0  0  0  0  0  0
   10.1588    9.5295   23.9841 C   0  0  0  0  0  0  0  0  0  0  0  0
    9.9643   11.0294   23.7172 C   0  0  0  0  0  0  0  0  0  0  0  0
  1  2  2  0
  2  3  1  0
  3  4  1  0
  4  5  2  0
  5  6  1  0
  6  7  1  0
  7  8  2  0
  2  9  1  0
  9 10  1  0
 10 11  2  0
 11 12  1  0
 12 13  2  0
 13 14  1  0
 14 15  2  0
 14 16  1  0
 16 17  1  6
 16 18  1  0
 18 19  1  0
  8  4  1  0
 15 10  1  0
 19 13  1  0
M  END
>  <ref_pdb>  (65) 
A5151a

>  <subsites>  (65) 
1 - Active Site

>  <HIPPO Compound ID>  (65) 
139485

>  <energy_score>  (65) 
-36.137662

>  <fragmenstein_mode>  (65) 
expansion

>  <scratch_subdir>  (65) 
/opt/xchem-fragalysis-2/maxwin/BulkDock/SCRATCH/513024/C139485-P4

>  <smiles>  (65) 
O=C(Cc1cocn1)Nc1ccc2c(c1)[C@@H](F)CC2

>  <alias>  (65) 
None

>  <ref_mols>  (65) 
A5512a,A5151a

>  <inspiration_score>  (65) 
None

>  <tags>  (65) 
openbind_a71ev2a_c1_fragmenstein,BulkDock Fragalysis export,fragmenstein_placed,openbind_a71ev2a_c1_scaffolds

>  <fragmenstein_outcome>  (65) 
acceptable

>  <fragmenstein_error>  (65) 


>  <distance_score>  (65) 
0.866845

>  <inchikey>  (65) 
DJFOQNYEAKBIRI-UHFFFAOYSA-N

>  <name>  (65) 
P33051

>  <HIPPO Pose ID>  (65) 
33051

>  <Energy>  (65) 
45.113997

>  <exports>  (65) 
['/opt/xchem-fragalysis-2/maxwin/BulkDock/OUTPUTS/openbind_a71ev2a_c1_fragmenstein_165VU4J.sdf', '/opt/xchem-fragalysis-2/maxwin/BulkDock/OUTPUTS/openbind_a71ev2a_c1_fragmenstein_1B07P1I.sdf', '/opt/xchem-fragalysis-2/maxwin/BulkDock/OUTPUTS/openbind_a71ev2a_c1_fragmenstein_1B07Y79.sdf', '/opt/xchem-fragalysis-2/maxwin/openbind-hippo/a71ev2a/openbind_a71ev2a_c1_scaffold_products.sdf', '/opt/xchem-fragalysis-2/maxwin/openbind-hippo/a71ev2a/cycle_01/bulkdock/openbind_a71ev2a_c1_scaffold_products.sdf', '/opt/xchem-fragalysis-2/maxwin/openbind-hippo/a71ev2a/cycle_01/bulkdock/openbind_a71ev2a_c1_scaffolds.sdf']

>  <fragmenstein_runtime>  (65) 
3.33005

$$$$
P34113
     RDKit          3D

 18 19  0  0  0  0  0  0  0  0999 V2000
    9.5183    8.8884   23.0536 C   0  0  0  0  0  0  0  0  0  0  0  0
    9.6244   10.2657   23.4074 O   0  0  0  0  0  0  0  0  0  0  0  0
    8.6618   10.7819   24.2286 C   0  0  0  0  0  0  0  0  0  0  0  0
    7.8116    9.9883   25.0009 C   0  0  0  0  0  0  0  0  0  0  0  0
    6.8297   10.5678   25.7990 C   0  0  0  0  0  0  0  0  0  0  0  0
    6.6803   11.9563   25.8269 C   0  0  0  0  0  0  0  0  0  0  0  0
    5.5344   12.5091   26.5948 C   0  0  0  0  0  0  0  0  0  0  0  0
    5.1228   13.9396   26.3613 C   0  0  0  0  0  0  0  0  0  0  0  0
    4.9498   11.8011   27.4144 O   0  0  0  0  0  0  0  0  0  0  0  0
    7.5486   12.7656   25.0851 C   0  0  0  0  0  0  0  0  0  0  0  0
    8.5417   12.1831   24.2832 C   0  0  0  0  0  0  0  0  0  0  0  0
    9.3620   13.0526   23.4424 C   0  0  0  0  0  0  0  0  0  0  0  0
    8.8561   13.5796   22.3181 N   0  0  0  0  0  0  0  0  0  0  0  0
    9.8972   14.2280   21.7603 N   0  0  0  0  0  0  0  0  0  0  0  0
   11.0122   14.2333   22.5299 C   0  0  0  0  0  0  0  0  0  0  0  0
   10.6910   13.5147   23.6566 C   0  0  0  0  0  0  0  0  0  0  0  0
   11.5695   13.2731   24.7959 C   0  0  0  0  0  0  0  0  0  0  0  0
   11.2978   14.3025   25.8035 N   0  0  0  0  0  0  0  0  0  0  0  0
  1  2  1  0
  2  3  1  0
  3  4  2  0
  4  5  1  0
  5  6  2  0
  6  7  1  0
  7  8  1  0
  7  9  2  0
  6 10  1  0
 10 11  2  0
 11 12  1  0
 12 13  2  0
 13 14  1  0
 14 15  1  0
 15 16  2  0
 16 17  1  0
 17 18  1  0
 11  3  1  0
 16 12  1  0
M  END
>  <ref_pdb>  (66) 
A0501a

>  <subsites>  (66) 
1 - Active Site

>  <HIPPO Compound ID>  (66) 
140978

>  <energy_score>  (66) 
-24.041136

>  <fragmenstein_mode>  (66) 
expansion

>  <scratch_subdir>  (66) 
/opt/xchem-fragalysis-2/maxwin/BulkDock/SCRATCH/513024/C140978-P13

>  <smiles>  (66) 
COc1ccc(C(C)=O)cc1-c1n[nH]cc1CN

>  <alias>  (66) 
None

>  <ref_mols>  (66) 
A4456a,A0501a

>  <inspiration_score>  (66) 
None

>  <tags>  (66) 
openbind_a71ev2a_c1_fragmenstein,BulkDock Fragalysis export,fragmenstein_placed,openbind_a71ev2a_c1_scaffolds

>  <fragmenstein_outcome>  (66) 
acceptable

>  <fragmenstein_error>  (66) 


>  <distance_score>  (66) 
0.985829

>  <inchikey>  (66) 
GTEDGOGNLVTJAH-UHFFFAOYSA-N

>  <name>  (66) 
P34113

>  <HIPPO Pose ID>  (66) 
34113

>  <Energy>  (66) 
51.677063

>  <exports>  (66) 
['/opt/xchem-fragalysis-2/maxwin/BulkDock/OUTPUTS/openbind_a71ev2a_c1_fragmenstein_165VU4J.sdf', '/opt/xchem-fragalysis-2/maxwin/BulkDock/OUTPUTS/openbind_a71ev2a_c1_fragmenstein_1B07P1I.sdf', '/opt/xchem-fragalysis-2/maxwin/BulkDock/OUTPUTS/openbind_a71ev2a_c1_fragmenstein_1B07Y79.sdf', '/opt/xchem-fragalysis-2/maxwin/openbind-hippo/a71ev2a/openbind_a71ev2a_c1_scaffold_products.sdf', '/opt/xchem-fragalysis-2/maxwin/openbind-hippo/a71ev2a/cycle_01/bulkdock/openbind_a71ev2a_c1_scaffold_products.sdf', '/opt/xchem-fragalysis-2/maxwin/openbind-hippo/a71ev2a/cycle_01/bulkdock/openbind_a71ev2a_c1_scaffolds.sdf']

>  <fragmenstein_runtime>  (66) 
2.584788

$$$$
P34116
     RDKit          3D

 17 18  0  0  0  0  0  0  0  0999 V2000
   10.0321    8.2206   23.2635 C   0  0  0  0  0  0  0  0  0  0  0  0
    8.7789    8.8250   23.6499 N   0  0  0  0  0  0  0  0  0  0  0  0
    8.9472   10.2076   23.6358 N   0  0  0  0  0  0  0  0  0  0  0  0
    8.2865   10.9636   24.6338 C   0  0  0  0  0  0  0  0  0  0  0  0
    7.2305   10.4264   25.3874 C   0  0  0  0  0  0  0  0  0  0  0  0
    6.5145   11.2111   26.2884 C   0  0  0  0  0  0  0  0  0  0  0  0
    6.8323   12.5564   26.4339 C   0  0  0  0  0  0  0  0  0  0  0  0
    7.8721   13.1129   25.6867 C   0  0  0  0  0  0  0  0  0  0  0  0
    8.5996   12.3276   24.7821 C   0  0  0  0  0  0  0  0  0  0  0  0
    9.6549   12.9324   23.9689 C   0  0  0  0  0  0  0  0  0  0  0  0
   10.9403   12.5719   24.1291 N   0  0  0  0  0  0  0  0  0  0  0  0
   11.5939   13.2487   23.1728 N   0  0  0  0  0  0  0  0  0  0  0  0
   10.7965   14.0557   22.4284 C   0  0  0  0  0  0  0  0  0  0  0  0
   11.3425   14.8921   21.3387 C   0  0  0  0  0  0  0  0  0  0  0  0
    9.5072   13.8302   22.8730 C   0  0  0  0  0  0  0  0  0  0  0  0
    8.2569   14.3516   22.2705 C   0  0  0  0  0  0  0  0  0  0  0  0
    7.2168   14.5252   23.2162 O   0  0  0  0  0  0  0  0  0  0  0  0
  1  2  1  0
  2  3  1  0
  3  4  1  0
  4  5  2  0
  5  6  1  0
  6  7  2  0
  7  8  1  0
  8  9  2  0
  9 10  1  0
 10 11  2  0
 11 12  1  0
 12 13  1  0
 13 14  1  0
 13 15  2  0
 15 16  1  0
 16 17  1  0
  9  4  1  0
 15 10  1  0
M  END
>  <ref_pdb>  (67) 
A0501a

>  <subsites>  (67) 
1 - Active Site

>  <HIPPO Compound ID>  (67) 
140988

>  <energy_score>  (67) 
-40.378102

>  <fragmenstein_mode>  (67) 
expansion

>  <scratch_subdir>  (67) 
/opt/xchem-fragalysis-2/maxwin/BulkDock/SCRATCH/513024/C140988-P13

>  <smiles>  (67) 
CNNc1ccccc1-c1n[nH]c(C)c1CO

>  <alias>  (67) 
None

>  <ref_mols>  (67) 
A0501a,A4524a

>  <inspiration_score>  (67) 
None

>  <tags>  (67) 
openbind_a71ev2a_c1_fragmenstein,BulkDock Fragalysis export,fragmenstein_placed,openbind_a71ev2a_c1_scaffolds

>  <fragmenstein_outcome>  (67) 
acceptable

>  <fragmenstein_error>  (67) 


>  <distance_score>  (67) 
0.987491

>  <inchikey>  (67) 
SMJQGBYWPCXPDR-UHFFFAOYSA-N

>  <name>  (67) 
P34116

>  <HIPPO Pose ID>  (67) 
34116

>  <Energy>  (67) 
73.804758

>  <exports>  (67) 
['/opt/xchem-fragalysis-2/maxwin/BulkDock/OUTPUTS/openbind_a71ev2a_c1_fragmenstein_165VU4J.sdf', '/opt/xchem-fragalysis-2/maxwin/BulkDock/OUTPUTS/openbind_a71ev2a_c1_fragmenstein_1B07P1I.sdf', '/opt/xchem-fragalysis-2/maxwin/BulkDock/OUTPUTS/openbind_a71ev2a_c1_fragmenstein_1B07Y79.sdf', '/opt/xchem-fragalysis-2/maxwin/openbind-hippo/a71ev2a/openbind_a71ev2a_c1_scaffold_products.sdf', '/opt/xchem-fragalysis-2/maxwin/openbind-hippo/a71ev2a/cycle_01/bulkdock/openbind_a71ev2a_c1_scaffold_products.sdf', '/opt/xchem-fragalysis-2/maxwin/openbind-hippo/a71ev2a/cycle_01/bulkdock/openbind_a71ev2a_c1_scaffolds.sdf']

>  <fragmenstein_runtime>  (67) 
1.925851

$$$$
P34458
     RDKit          3D

 14 14  0  0  0  0  0  0  0  0999 V2000
    8.3582   14.9053   21.8617 C   0  0  0  0  0  0  0  0  0  0  0  0
    7.9745   13.7867   22.6589 O   0  0  0  0  0  0  0  0  0  0  0  0
    8.3242   13.8724   23.9672 C   0  0  0  0  0  0  0  0  0  0  0  0
    8.9310   14.7620   24.5384 O   0  0  0  0  0  0  0  0  0  0  0  0
    7.8967   12.6342   24.6191 C   0  0  0  0  0  0  0  0  0  0  0  0
    8.4555   11.4683   24.1035 C   0  0  0  0  0  0  0  0  0  0  0  0
    8.0042   10.2605   24.5784 C   0  0  0  0  0  0  0  0  0  0  0  0
    8.6023    9.0220   23.9949 C   0  0  0  0  0  0  0  0  0  0  0  0
    7.0359   10.1670   25.5186 N   0  0  0  0  0  0  0  0  0  0  0  0
    6.5404   11.3351   26.0181 C   0  0  0  0  0  0  0  0  0  0  0  0
    6.9483   12.6201   25.6504 C   0  0  0  0  0  0  0  0  0  0  0  0
    6.4493   13.8052   26.2372 N   0  0  0  0  0  0  0  0  0  0  0  0
    5.1541   13.7152   26.9129 C   0  0  0  0  0  0  0  0  0  0  0  0
    7.4124   14.6511   26.8625 N   0  0  0  0  0  0  0  0  0  0  0  0
  1  2  1  0
  2  3  1  0
  3  4  2  0
  3  5  1  0
  5  6  2  0
  6  7  1  0
  7  8  1  0
  7  9  2  0
  9 10  1  0
 10 11  2  0
 11 12  1  0
 12 13  1  0
 12 14  1  0
 11  5  1  0
M  END
>  <ref_pdb>  (68) 
A0514a

>  <subsites>  (68) 
1 - Active Site

>  <HIPPO Compound ID>  (68) 
141599

>  <energy_score>  (68) 
-30.548267

>  <fragmenstein_mode>  (68) 
expansion

>  <scratch_subdir>  (68) 
/opt/xchem-fragalysis-2/maxwin/BulkDock/SCRATCH/513024/C141599-P15

>  <smiles>  (68) 
COC(=O)c1cc(C)ncc1N(C)N

>  <alias>  (68) 
None

>  <ref_mols>  (68) 
A4331a,A0514a

>  <inspiration_score>  (68) 
None

>  <tags>  (68) 
openbind_a71ev2a_c1_fragmenstein,BulkDock Fragalysis export,fragmenstein_placed,openbind_a71ev2a_c1_scaffolds

>  <fragmenstein_outcome>  (68) 
acceptable

>  <fragmenstein_error>  (68) 


>  <distance_score>  (68) 
0.983263

>  <inchikey>  (68) 
VTHWZLJENYHQED-UHFFFAOYSA-N

>  <name>  (68) 
P34458

>  <HIPPO Pose ID>  (68) 
34458

>  <Energy>  (68) 
78.039019

>  <exports>  (68) 
['/opt/xchem-fragalysis-2/maxwin/BulkDock/OUTPUTS/openbind_a71ev2a_c1_fragmenstein_165VU4J.sdf', '/opt/xchem-fragalysis-2/maxwin/BulkDock/OUTPUTS/openbind_a71ev2a_c1_fragmenstein_1B07P1I.sdf', '/opt/xchem-fragalysis-2/maxwin/BulkDock/OUTPUTS/openbind_a71ev2a_c1_fragmenstein_1B07Y79.sdf', '/opt/xchem-fragalysis-2/maxwin/openbind-hippo/a71ev2a/openbind_a71ev2a_c1_scaffold_products.sdf', '/opt/xchem-fragalysis-2/maxwin/openbind-hippo/a71ev2a/cycle_01/bulkdock/openbind_a71ev2a_c1_scaffold_products.sdf', '/opt/xchem-fragalysis-2/maxwin/openbind-hippo/a71ev2a/cycle_01/bulkdock/openbind_a71ev2a_c1_scaffolds.sdf']

>  <fragmenstein_runtime>  (68) 
5.817032

$$$$
P34468
     RDKit          3D

 13 13  0  0  0  0  0  0  0  0999 V2000
    5.5263   15.8868   28.8202 C   0  0  0  0  0  0  0  0  0  0  0  0
    4.9395   14.8135   27.9164 C   0  0  0  0  0  0  0  0  0  0  0  0
    5.9778   13.8669   27.5360 N   0  0  0  0  0  0  0  0  0  0  0  0
    5.4518   12.7852   26.6912 C   0  0  0  0  0  0  0  0  0  0  0  0
    6.5517   12.1529   25.8592 C   0  0  0  0  0  0  0  0  0  0  0  0
    7.4182   12.9819   25.1427 C   0  0  0  0  0  0  0  0  0  0  0  0
    8.3863   12.4141   24.3279 C   0  0  0  0  0  0  0  0  0  0  0  0
    8.4498   11.0325   24.2234 C   0  0  0  0  0  0  0  0  0  0  0  0
    9.4073   10.5582   23.3103 O   0  0  0  0  0  0  0  0  0  0  0  0
    9.6140    9.2123   23.0592 C   0  0  0  0  0  0  0  0  0  0  0  0
    9.1098    8.2660   23.6285 O   0  0  0  0  0  0  0  0  0  0  0  0
    7.5559   10.2702   24.9621 C   0  0  0  0  0  0  0  0  0  0  0  0
    6.6179   10.7988   25.7921 N   0  0  0  0  0  0  0  0  0  0  0  0
  1  2  1  0
  2  3  1  0
  3  4  1  0
  4  5  1  0
  5  6  2  0
  6  7  1  0
  7  8  2  0
  8  9  1  0
  9 10  1  0
 10 11  2  0
  8 12  1  0
 12 13  2  0
 13  5  1  0
M  END
>  <ref_pdb>  (69) 
A0514a

>  <subsites>  (69) 
1 - Active Site

>  <HIPPO Compound ID>  (69) 
141610

>  <energy_score>  (69) 
-18.470308

>  <fragmenstein_mode>  (69) 
expansion

>  <scratch_subdir>  (69) 
/opt/xchem-fragalysis-2/maxwin/BulkDock/SCRATCH/513024/C141610-P15

>  <smiles>  (69) 
CCNCc1ccc(OC=O)cn1

>  <alias>  (69) 
None

>  <ref_mols>  (69) 
A4346a,A0514a

>  <inspiration_score>  (69) 
None

>  <tags>  (69) 
openbind_a71ev2a_c1_fragmenstein,BulkDock Fragalysis export,fragmenstein_placed,openbind_a71ev2a_c1_scaffolds

>  <fragmenstein_outcome>  (69) 
acceptable

>  <fragmenstein_error>  (69) 


>  <distance_score>  (69) 
0.722141

>  <inchikey>  (69) 
BVTGRELWAPFAGZ-UHFFFAOYSA-N

>  <name>  (69) 
P34468

>  <HIPPO Pose ID>  (69) 
34468

>  <Energy>  (69) 
48.393849

>  <exports>  (69) 
['/opt/xchem-fragalysis-2/maxwin/BulkDock/OUTPUTS/openbind_a71ev2a_c1_fragmenstein_165VU4J.sdf', '/opt/xchem-fragalysis-2/maxwin/BulkDock/OUTPUTS/openbind_a71ev2a_c1_fragmenstein_1B07P1I.sdf', '/opt/xchem-fragalysis-2/maxwin/BulkDock/OUTPUTS/openbind_a71ev2a_c1_fragmenstein_1B07Y79.sdf', '/opt/xchem-fragalysis-2/maxwin/openbind-hippo/a71ev2a/openbind_a71ev2a_c1_scaffold_products.sdf', '/opt/xchem-fragalysis-2/maxwin/openbind-hippo/a71ev2a/cycle_01/bulkdock/openbind_a71ev2a_c1_scaffold_products.sdf', '/opt/xchem-fragalysis-2/maxwin/openbind-hippo/a71ev2a/cycle_01/bulkdock/openbind_a71ev2a_c1_scaffolds.sdf']

>  <fragmenstein_runtime>  (69) 
1.182567

$$$$
P34471
     RDKit          3D

 11 11  0  0  0  0  0  0  0  0999 V2000
    9.5432    8.8618   23.1045 C   0  0  0  0  0  0  0  0  0  0  0  0
    8.5467    9.4505   23.9400 O   0  0  0  0  0  0  0  0  0  0  0  0
    8.6767   10.7838   24.1295 C   0  0  0  0  0  0  0  0  0  0  0  0
    9.5695   11.4894   23.6864 O   0  0  0  0  0  0  0  0  0  0  0  0
    7.5893   11.2869   25.0100 C   0  0  0  0  0  0  0  0  0  0  0  0
    6.7553   10.3817   25.6776 C   0  0  0  0  0  0  0  0  0  0  0  0
    5.7986   10.8714   26.5415 C   0  0  0  0  0  0  0  0  0  0  0  0
    5.5990   12.1825   26.7521 N   0  0  0  0  0  0  0  0  0  0  0  0
    6.3840   13.0397   26.0508 C   0  0  0  0  0  0  0  0  0  0  0  0
    7.4337   12.6666   25.2111 C   0  0  0  0  0  0  0  0  0  0  0  0
    8.1223   13.6278   24.4636 N   0  0  0  0  0  0  0  0  0  0  0  0
  1  2  1  0
  2  3  1  0
  3  4  2  0
  3  5  1  0
  5  6  2  0
  6  7  1  0
  7  8  2  0
  8  9  1  0
  9 10  2  0
 10 11  1  0
 10  5  1  0
M  END
>  <ref_pdb>  (70) 
A0514a

>  <subsites>  (70) 
1 - Active Site

>  <HIPPO Compound ID>  (70) 
15

>  <energy_score>  (70) 
-27.435509

>  <fragmenstein_mode>  (70) 
expansion

>  <scratch_subdir>  (70) 
/opt/xchem-fragalysis-2/maxwin/BulkDock/SCRATCH/513024/C15-P15

>  <smiles>  (70) 
COC(=O)c1ccncc1N

>  <alias>  (70) 
None

>  <ref_mols>  (70) 
A4368a,A0514a

>  <inspiration_score>  (70) 
None

>  <tags>  (70) 
openbind_a71ev2a_c1_fragmenstein,BulkDock Fragalysis export,fragmenstein_placed,openbind_a71ev2a_c1_scaffolds

>  <fragmenstein_outcome>  (70) 
acceptable

>  <fragmenstein_error>  (70) 


>  <distance_score>  (70) 
0.704835

>  <inchikey>  (70) 
XLQIGLBALJNHKR-UHFFFAOYSA-N

>  <name>  (70) 
P34471

>  <HIPPO Pose ID>  (70) 
34471

>  <Energy>  (70) 
45.515264

>  <exports>  (70) 
['/opt/xchem-fragalysis-2/maxwin/BulkDock/OUTPUTS/openbind_a71ev2a_c1_fragmenstein_165VU4J.sdf', '/opt/xchem-fragalysis-2/maxwin/BulkDock/OUTPUTS/openbind_a71ev2a_c1_fragmenstein_1B07P1I.sdf', '/opt/xchem-fragalysis-2/maxwin/BulkDock/OUTPUTS/openbind_a71ev2a_c1_fragmenstein_1B07Y79.sdf', '/opt/xchem-fragalysis-2/maxwin/openbind-hippo/a71ev2a/openbind_a71ev2a_c1_scaffold_products.sdf', '/opt/xchem-fragalysis-2/maxwin/openbind-hippo/a71ev2a/cycle_01/bulkdock/openbind_a71ev2a_c1_scaffold_products.sdf', '/opt/xchem-fragalysis-2/maxwin/openbind-hippo/a71ev2a/cycle_01/bulkdock/openbind_a71ev2a_c1_scaffolds.sdf']

>  <fragmenstein_runtime>  (70) 
0.854963

$$$$
P36471
     RDKit          3D

 14 14  0  0  0  0  0  0  0  0999 V2000
    6.7248   22.7509   28.7310 C   0  0  0  0  0  0  0  0  0  0  0  0
    7.9560   21.9616   28.7135 N   0  0  0  0  0  0  0  0  0  0  0  0
    7.6781   20.5877   29.1362 C   0  0  0  0  0  0  0  0  0  0  0  0
    8.2885   21.8274   27.2965 O   0  0  0  0  0  0  0  0  0  0  0  0
    9.5447   22.4694   27.0325 C   0  0  0  0  0  0  0  0  0  0  0  0
   10.7210   21.5877   27.4538 C   0  0  0  0  0  0  0  0  0  0  0  0
   12.0499   22.1459   26.9648 C   0  0  0  0  0  0  0  0  0  0  0  0
   11.9856   22.3623   25.4998 N   0  0  0  0  0  0  0  0  0  0  0  0
   13.4488   22.4176   24.6517 S   0  0  0  0  0  0  0  0  0  0  0  0
   14.1506   23.9527   25.2148 C   0  0  0  0  0  0  0  0  0  0  0  0
   13.1415   22.5775   23.2466 O   0  0  0  0  0  0  0  0  0  0  0  0
   14.3016   21.3517   25.1251 O   0  0  0  0  0  0  0  0  0  0  0  0
   10.9240   23.3064   25.1046 C   0  0  0  0  0  0  0  0  0  0  0  0
    9.5804   22.7438   25.5323 C   0  0  0  0  0  0  0  0  0  0  0  0
  1  2  1  0
  2  3  1  0
  2  4  1  0
  4  5  1  0
  5  6  1  0
  6  7  1  0
  7  8  1  0
  8  9  1  0
  9 10  1  0
  9 11  2  0
  9 12  2  0
  8 13  1  0
 13 14  1  0
 14  5  1  0
M  END
>  <ref_pdb>  (71) 
A0228a

>  <subsites>  (71) 
4 - A0525/A/246/1

>  <HIPPO Compound ID>  (71) 
223813

>  <energy_score>  (71) 
-50.463128

>  <fragmenstein_mode>  (71) 
expansion

>  <scratch_subdir>  (71) 
/opt/xchem-fragalysis-2/maxwin/BulkDock/SCRATCH/513025/C223813-P47

>  <smiles>  (71) 
CN(C)OC1CCN(S(C)(=O)=O)CC1

>  <alias>  (71) 
None

>  <ref_mols>  (71) 
A0540a,A0228a

>  <inspiration_score>  (71) 
None

>  <tags>  (71) 
openbind_a71ev2a_c1_fragmenstein,BulkDock Fragalysis export,fragmenstein_placed,openbind_a71ev2a_c1_scaffolds

>  <fragmenstein_outcome>  (71) 
acceptable

>  <fragmenstein_error>  (71) 


>  <distance_score>  (71) 
0.832396

>  <inchikey>  (71) 
MHXVSXRGCZAGOU-UHFFFAOYSA-N

>  <name>  (71) 
P36471

>  <HIPPO Pose ID>  (71) 
36471

>  <Energy>  (71) 
-47.422328

>  <exports>  (71) 
['/opt/xchem-fragalysis-2/maxwin/BulkDock/OUTPUTS/openbind_a71ev2a_c1_fragmenstein_165VU4J.sdf', '/opt/xchem-fragalysis-2/maxwin/BulkDock/OUTPUTS/openbind_a71ev2a_c1_fragmenstein_1B07P1I.sdf', '/opt/xchem-fragalysis-2/maxwin/BulkDock/OUTPUTS/openbind_a71ev2a_c1_fragmenstein_1B07Y79.sdf', '/opt/xchem-fragalysis-2/maxwin/openbind-hippo/a71ev2a/openbind_a71ev2a_c1_scaffold_products.sdf', '/opt/xchem-fragalysis-2/maxwin/openbind-hippo/a71ev2a/cycle_01/bulkdock/openbind_a71ev2a_c1_scaffold_products.sdf', '/opt/xchem-fragalysis-2/maxwin/openbind-hippo/a71ev2a/cycle_01/bulkdock/openbind_a71ev2a_c1_scaffolds.sdf']

>  <fragmenstein_runtime>  (71) 
2.01875

$$$$
P36501
     RDKit          3D

 14 16  0  0  0  0  0  0  0  0999 V2000
    8.7075   10.3731   -1.1391 N   0  0  0  0  0  0  0  0  0  0  0  0
    9.5897   10.9406   -0.1237 C   0  0  0  0  0  0  0  0  0  0  0  0
    8.8170   11.4245    1.0785 C   0  0  0  0  0  0  0  0  0  0  0  0
    8.1220   10.4633    1.8645 C   0  0  0  0  0  0  0  0  0  0  0  0
    7.4145   10.8181    3.0248 C   0  0  0  0  0  0  0  0  0  0  0  0
    7.3889   12.1432    3.4006 C   0  0  0  0  0  0  0  0  0  0  0  0
    8.0418   13.0612    2.6300 C   0  0  0  0  0  0  0  0  0  0  0  0
    7.8374   14.2880    3.1910 C   0  0  0  0  0  0  0  0  0  0  0  0
    8.4053   15.4023    2.6017 C   0  0  0  0  0  0  0  0  0  0  0  0
    9.1768   15.2224    1.4421 C   0  0  0  0  0  0  0  0  0  0  0  0
    9.3638   13.9405    0.8769 C   0  0  0  0  0  0  0  0  0  0  0  0
    8.7759   12.7942    1.4692 C   0  0  0  0  0  0  0  0  0  0  0  0
    6.9526   14.1422    4.3941 C   0  0  0  0  0  0  0  0  0  0  0  0
    6.7813   12.6840    4.5730 N   0  0  0  0  0  0  0  0  0  0  0  0
  1  2  1  0
  2  3  1  0
  3  4  2  0
  4  5  1  0
  5  6  2  0
  6  7  1  0
  7  8  2  0
  8  9  1  0
  9 10  2  0
 10 11  1  0
 11 12  2  0
  8 13  1  0
 13 14  1  0
 12  3  1  0
 14  6  1  0
 12  7  1  0
M  END
>  <ref_pdb>  (72) 
A0229b

>  <subsites>  (72) 
3 - A0541/A/147/1

>  <HIPPO Compound ID>  (72) 
223849

>  <energy_score>  (72) 
-22.122876

>  <fragmenstein_mode>  (72) 
expansion

>  <scratch_subdir>  (72) 
/opt/xchem-fragalysis-2/maxwin/BulkDock/SCRATCH/513025/C223849-P49

>  <smiles>  (72) 
NCc1ccc2c3c(cccc13)CN2

>  <alias>  (72) 
None

>  <ref_mols>  (72) 
A0229b,A0188a,A0586a

>  <inspiration_score>  (72) 
None

>  <tags>  (72) 
openbind_a71ev2a_c1_fragmenstein,BulkDock Fragalysis export,fragmenstein_placed,openbind_a71ev2a_c1_scaffolds

>  <fragmenstein_outcome>  (72) 
acceptable

>  <fragmenstein_error>  (72) 


>  <distance_score>  (72) 
0.654145

>  <inchikey>  (72) 
VZZNLCQRSIUYQV-UHFFFAOYSA-N

>  <name>  (72) 
P36501

>  <HIPPO Pose ID>  (72) 
36501

>  <Energy>  (72) 
40.436418

>  <exports>  (72) 
['/opt/xchem-fragalysis-2/maxwin/BulkDock/OUTPUTS/openbind_a71ev2a_c1_fragmenstein_165VU4J.sdf', '/opt/xchem-fragalysis-2/maxwin/BulkDock/OUTPUTS/openbind_a71ev2a_c1_fragmenstein_1B07P1I.sdf', '/opt/xchem-fragalysis-2/maxwin/BulkDock/OUTPUTS/openbind_a71ev2a_c1_fragmenstein_1B07Y79.sdf', '/opt/xchem-fragalysis-2/maxwin/openbind-hippo/a71ev2a/openbind_a71ev2a_c1_scaffold_products.sdf', '/opt/xchem-fragalysis-2/maxwin/openbind-hippo/a71ev2a/cycle_01/bulkdock/openbind_a71ev2a_c1_scaffold_products.sdf', '/opt/xchem-fragalysis-2/maxwin/openbind-hippo/a71ev2a/cycle_01/bulkdock/openbind_a71ev2a_c1_scaffolds.sdf']

>  <fragmenstein_runtime>  (72) 
0.504962

$$$$
P36508
     RDKit          3D

 23 25  0  0  0  0  0  0  0  0999 V2000
    9.6699    9.0949   23.4316 C   0  0  0  0  0  0  0  0  0  0  0  0
    8.7184    9.9937   24.1715 C   0  0  0  0  0  0  0  0  0  0  0  0
    7.7776    9.3970   24.9532 N   0  0  0  0  0  0  0  0  0  0  0  0
    6.9149   10.1888   25.6281 C   0  0  0  0  0  0  0  0  0  0  0  0
    6.9061   11.5661   25.5498 C   0  0  0  0  0  0  0  0  0  0  0  0
    5.9142   12.4297   26.2727 C   0  0  0  0  0  0  0  0  0  0  0  0
    5.6139   11.9765   27.6081 N   0  0  0  0  0  0  0  0  0  0  0  0
    6.4201   12.1089   28.9162 C   0  0  0  0  0  0  0  0  0  0  0  0
    7.4197   12.6731   29.1360 O   0  0  0  0  0  0  0  0  0  0  0  0
    5.6645   11.3472   30.0456 C   0  0  0  0  0  0  0  0  0  0  0  0
    5.0992    9.9199   29.7934 C   0  0  0  0  0  0  0  0  0  0  0  0
    5.4462    9.6046   31.2623 C   0  0  0  0  0  0  0  0  0  0  0  0
    6.5456   10.6741   31.1433 C   0  0  0  0  0  0  0  0  0  0  0  0
    7.8378   12.1431   24.6810 C   0  0  0  0  0  0  0  0  0  0  0  0
    8.8203   11.3777   24.0535 C   0  0  0  0  0  0  0  0  0  0  0  0
    9.8775   11.8649   23.3401 O   0  0  0  0  0  0  0  0  0  0  0  0
   10.1622   13.2466   23.4203 C   0  0  2  0  0  0  0  0  0  0  0  0
   11.5886   13.4710   22.8995 C   0  0  0  0  0  0  0  0  0  0  0  0
   12.4426   13.2811   24.1393 C   0  0  0  0  0  0  0  0  0  0  0  0
   11.6249   13.8111   25.1983 N   0  0  0  0  0  0  0  0  0  0  0  0
   12.1114   14.6059   26.2922 C   0  0  0  0  0  0  0  0  0  0  0  0
   10.3010   13.8686   24.8164 C   0  0  0  0  0  0  0  0  0  0  0  0
    9.4242   14.4187   25.4691 O   0  0  0  0  0  0  0  0  0  0  0  0
  1  2  1  0
  2  3  2  0
  3  4  1  0
  4  5  2  0
  5  6  1  0
  6  7  1  0
  7  8  1  0
  8  9  2  0
  8 10  1  0
 10 11  1  0
 11 12  1  0
 12 13  1  0
  5 14  1  0
 14 15  2  0
 15 16  1  0
 17 16  1  1
 17 18  1  0
 18 19  1  0
 19 20  1  0
 20 21  1  0
 20 22  1  0
 22 23  2  0
 15  2  1  0
 22 17  1  0
 13 10  1  0
M  END
>  <ref_pdb>  (73) 
A0237a

>  <subsites>  (73) 
1 - Active Site

>  <HIPPO Compound ID>  (73) 
223863

>  <energy_score>  (73) 
-6.5466

>  <fragmenstein_mode>  (73) 
expansion

>  <scratch_subdir>  (73) 
/opt/xchem-fragalysis-2/maxwin/BulkDock/SCRATCH/513025/C223863-P50

>  <smiles>  (73) 
Cc1ncc(CNC(=O)C2CCC2)cc1O[C@@H]1CCN(C)C1=O

>  <alias>  (73) 
None

>  <ref_mols>  (73) 
A0237a,A0487a

>  <inspiration_score>  (73) 
None

>  <tags>  (73) 
openbind_a71ev2a_c1_fragmenstein,BulkDock Fragalysis export,fragmenstein_placed,openbind_a71ev2a_c1_scaffolds

>  <fragmenstein_outcome>  (73) 
acceptable

>  <fragmenstein_error>  (73) 


>  <distance_score>  (73) 
0.738714

>  <inchikey>  (73) 
GFLLQDRPUXMCNL-UHFFFAOYSA-N

>  <name>  (73) 
P36508

>  <HIPPO Pose ID>  (73) 
36508

>  <Energy>  (73) 
51.683779

>  <exports>  (73) 
['/opt/xchem-fragalysis-2/maxwin/BulkDock/OUTPUTS/openbind_a71ev2a_c1_fragmenstein_165VU4J.sdf', '/opt/xchem-fragalysis-2/maxwin/BulkDock/OUTPUTS/openbind_a71ev2a_c1_fragmenstein_1B07P1I.sdf', '/opt/xchem-fragalysis-2/maxwin/BulkDock/OUTPUTS/openbind_a71ev2a_c1_fragmenstein_1B07Y79.sdf', '/opt/xchem-fragalysis-2/maxwin/openbind-hippo/a71ev2a/openbind_a71ev2a_c1_scaffold_products.sdf', '/opt/xchem-fragalysis-2/maxwin/openbind-hippo/a71ev2a/cycle_01/bulkdock/openbind_a71ev2a_c1_scaffold_products.sdf', '/opt/xchem-fragalysis-2/maxwin/openbind-hippo/a71ev2a/cycle_01/bulkdock/openbind_a71ev2a_c1_scaffolds.sdf']

>  <fragmenstein_runtime>  (73) 
5.176986

$$$$
P36514
     RDKit          3D

 22 23  0  0  0  0  0  0  0  0999 V2000
    9.5850    9.4711   23.3996 C   0  0  0  0  0  0  0  0  0  0  0  0
    8.5737   10.1843   24.2483 C   0  0  0  0  0  0  0  0  0  0  0  0
    8.4664   11.5765   24.2427 C   0  0  0  0  0  0  0  0  0  0  0  0
    7.4440   12.2044   24.9820 C   0  0  0  0  0  0  0  0  0  0  0  0
    7.0617   13.6714   24.7700 C   0  0  2  0  0  0  0  0  0  0  0  0
    7.5147   14.2576   23.4247 C   0  0  0  0  0  0  0  0  0  0  0  0
    7.4756   14.6025   25.9181 C   0  0  0  0  0  0  0  0  0  0  0  0
    6.0772   15.6405   26.4303 S   0  0  0  0  0  0  0  0  0  0  0  0
    6.8137   17.0877   26.8044 N   0  0  0  0  0  0  0  0  0  0  0  0
    5.5506   15.1723   27.6924 O   0  0  0  0  0  0  0  0  0  0  0  0
    5.1994   15.9154   25.3203 O   0  0  0  0  0  0  0  0  0  0  0  0
    6.6431   11.3964   25.8149 C   0  0  0  0  0  0  0  0  0  0  0  0
    5.5303   11.9135   26.6830 C   0  0  0  0  0  0  0  0  0  0  0  0
    5.4624   11.2219   27.9380 N   0  0  0  0  0  0  0  0  0  0  0  0
    6.2970   11.3913   29.2187 C   0  0  0  0  0  0  0  0  0  0  0  0
    7.1222   12.1719   29.4861 O   0  0  0  0  0  0  0  0  0  0  0  0
    5.9206   10.2126   30.1573 C   0  0  0  0  0  0  0  0  0  0  0  0
    4.6287   10.3407   30.9971 C   0  0  0  0  0  0  0  0  0  0  0  0
    5.3669    9.5851   32.1181 C   0  0  0  0  0  0  0  0  0  0  0  0
    6.6821   10.0944   31.5029 C   0  0  0  0  0  0  0  0  0  0  0  0
    6.8312   10.0246   25.7370 C   0  0  0  0  0  0  0  0  0  0  0  0
    7.7604    9.4076   24.9893 N   0  0  0  0  0  0  0  0  0  0  0  0
  1  2  1  0
  2  3  2  0
  3  4  1  0
  4  5  1  0
  5  6  1  6
  5  7  1  0
  7  8  1  0
  8  9  1  0
  8 10  2  0
  8 11  2  0
  4 12  2  0
 12 13  1  0
 13 14  1  0
 14 15  1  0
 15 16  2  0
 15 17  1  0
 17 18  1  0
 18 19  1  0
 19 20  1  0
 12 21  1  0
 21 22  2  0
 22  2  1  0
 20 17  1  0
M  END
>  <ref_pdb>  (74) 
A0237a

>  <subsites>  (74) 
1 - Active Site

>  <HIPPO Compound ID>  (74) 
223876

>  <energy_score>  (74) 
-24.397366

>  <fragmenstein_mode>  (74) 
expansion

>  <scratch_subdir>  (74) 
/opt/xchem-fragalysis-2/maxwin/BulkDock/SCRATCH/513025/C223876-P50

>  <smiles>  (74) 
Cc1cc([C@H](C)CS(N)(=O)=O)c(CNC(=O)C2CCC2)cn1

>  <alias>  (74) 
None

>  <ref_mols>  (74) 
A0387a,A0237a

>  <inspiration_score>  (74) 
None

>  <tags>  (74) 
openbind_a71ev2a_c1_fragmenstein,BulkDock Fragalysis export,fragmenstein_placed,openbind_a71ev2a_c1_scaffolds

>  <fragmenstein_outcome>  (74) 
acceptable

>  <fragmenstein_error>  (74) 


>  <distance_score>  (74) 
0.846561

>  <inchikey>  (74) 
JFQKISFLWIGOGM-UHFFFAOYSA-N

>  <name>  (74) 
P36514

>  <HIPPO Pose ID>  (74) 
36514

>  <Energy>  (74) 
-57.332793

>  <exports>  (74) 
['/opt/xchem-fragalysis-2/maxwin/BulkDock/OUTPUTS/openbind_a71ev2a_c1_fragmenstein_165VU4J.sdf', '/opt/xchem-fragalysis-2/maxwin/BulkDock/OUTPUTS/openbind_a71ev2a_c1_fragmenstein_1B07P1I.sdf', '/opt/xchem-fragalysis-2/maxwin/BulkDock/OUTPUTS/openbind_a71ev2a_c1_fragmenstein_1B07Y79.sdf', '/opt/xchem-fragalysis-2/maxwin/openbind-hippo/a71ev2a/openbind_a71ev2a_c1_scaffold_products.sdf', '/opt/xchem-fragalysis-2/maxwin/openbind-hippo/a71ev2a/cycle_01/bulkdock/openbind_a71ev2a_c1_scaffold_products.sdf', '/opt/xchem-fragalysis-2/maxwin/openbind-hippo/a71ev2a/cycle_01/bulkdock/openbind_a71ev2a_c1_scaffolds.sdf']

>  <fragmenstein_runtime>  (74) 
2.500505

$$$$
P36843
     RDKit          3D

 21 22  0  0  0  0  0  0  0  0999 V2000
    5.6778   17.3700   27.6790 C   0  0  0  0  0  0  0  0  0  0  0  0
    6.5775   16.4844   28.5124 C   0  0  0  0  0  0  0  0  0  0  0  0
    7.9259   15.7421   27.6012 S   0  0  0  0  0  0  0  0  0  0  0  0
    8.8429   16.7920   27.2276 O   0  0  0  0  0  0  0  0  0  0  0  0
    8.3916   14.5821   28.3134 O   0  0  0  0  0  0  0  0  0  0  0  0
    7.2661   15.2521   26.1660 N   0  0  0  0  0  0  0  0  0  0  0  0
    6.4297   14.0695   25.9272 C   0  0  2  0  0  0  0  0  0  0  0  0
    5.3086   13.8204   26.9464 C   0  0  0  0  0  0  0  0  0  0  0  0
    5.6942   12.8881   28.4445 S   0  0  0  0  0  0  0  0  0  0  0  0
    4.6357   11.5870   28.3341 N   0  0  0  0  0  0  0  0  0  0  0  0
    5.1859   13.5991   29.5962 O   0  0  0  0  0  0  0  0  0  0  0  0
    6.9742   12.2353   28.4545 O   0  0  0  0  0  0  0  0  0  0  0  0
    7.1610   12.8429   25.4160 C   0  0  0  0  0  0  0  0  0  0  0  0
    6.5583   11.5926   25.6321 C   0  0  0  0  0  0  0  0  0  0  0  0
    7.1722   10.4151   25.2959 C   0  0  0  0  0  0  0  0  0  0  0  0
    8.3110   10.4843   24.5627 C   0  0  0  0  0  0  0  0  0  0  0  0
    8.8896   11.6770   24.2297 C   0  0  0  0  0  0  0  0  0  0  0  0
    8.3566   12.8798   24.6685 C   0  0  0  0  0  0  0  0  0  0  0  0
    9.9722   11.4779   23.4314 O   0  0  0  0  0  0  0  0  0  0  0  0
    9.9610   10.0292   23.2915 C   0  0  0  0  0  0  0  0  0  0  0  0
    8.9042    9.4021   24.0213 O   0  0  0  0  0  0  0  0  0  0  0  0
  1  2  1  0
  2  3  1  0
  3  4  2  0
  3  5  2  0
  3  6  1  0
  6  7  1  0
  7  8  1  1
  8  9  1  0
  9 10  1  0
  9 11  2  0
  9 12  2  0
  7 13  1  0
 13 14  2  0
 14 15  1  0
 15 16  2  0
 16 17  1  0
 17 18  2  0
 17 19  1  0
 19 20  1  0
 20 21  1  0
 18 13  1  0
 21 16  1  0
M  END
>  <ref_pdb>  (75) 
A0351a

>  <subsites>  (75) 
1 - Active Site

>  <HIPPO Compound ID>  (75) 
224261

>  <energy_score>  (75) 
-44.034687

>  <fragmenstein_mode>  (75) 
expansion

>  <scratch_subdir>  (75) 
/opt/xchem-fragalysis-2/maxwin/BulkDock/SCRATCH/513025/C224261-P56

>  <smiles>  (75) 
CCS(=O)(=O)N[C@H](CS(N)(=O)=O)c1ccc2c(c1)OCO2

>  <alias>  (75) 
None

>  <ref_mols>  (75) 
A0351a,A0450a

>  <inspiration_score>  (75) 
None

>  <tags>  (75) 
openbind_a71ev2a_c1_fragmenstein,BulkDock Fragalysis export,fragmenstein_placed,openbind_a71ev2a_c1_scaffolds

>  <fragmenstein_outcome>  (75) 
acceptable

>  <fragmenstein_error>  (75) 


>  <distance_score>  (75) 
0.996858

>  <inchikey>  (75) 
ISCVVQNSXGDQLC-UHFFFAOYSA-N

>  <name>  (75) 
P36843

>  <HIPPO Pose ID>  (75) 
36843

>  <Energy>  (75) 
-121.348066

>  <exports>  (75) 
['/opt/xchem-fragalysis-2/maxwin/BulkDock/OUTPUTS/openbind_a71ev2a_c1_fragmenstein_165VU4J.sdf', '/opt/xchem-fragalysis-2/maxwin/BulkDock/OUTPUTS/openbind_a71ev2a_c1_fragmenstein_1B07P1I.sdf', '/opt/xchem-fragalysis-2/maxwin/BulkDock/OUTPUTS/openbind_a71ev2a_c1_fragmenstein_1B07Y79.sdf', '/opt/xchem-fragalysis-2/maxwin/openbind-hippo/a71ev2a/openbind_a71ev2a_c1_scaffold_products.sdf', '/opt/xchem-fragalysis-2/maxwin/openbind-hippo/a71ev2a/cycle_01/bulkdock/openbind_a71ev2a_c1_scaffold_products.sdf', '/opt/xchem-fragalysis-2/maxwin/openbind-hippo/a71ev2a/cycle_01/bulkdock/openbind_a71ev2a_c1_scaffolds.sdf']

>  <fragmenstein_runtime>  (75) 
2.062648

$$$$
P37149
     RDKit          3D

 16 17  0  0  0  0  0  0  0  0999 V2000
    7.5993   22.7072   26.3294 N   0  0  0  0  0  0  0  0  0  0  0  0
    8.8099   22.2179   26.9775 C   0  0  2  0  0  0  0  0  0  0  0  0
    9.0264   22.5699   28.3627 N   0  0  0  0  0  0  0  0  0  0  0  0
    8.9333   23.8231   28.8487 C   0  0  0  0  0  0  0  0  0  0  0  0
    9.3352   25.0178   28.2143 C   0  0  0  0  0  0  0  0  0  0  0  0
    9.0439   26.0207   29.1084 C   0  0  0  0  0  0  0  0  0  0  0  0
    8.5092   25.4010   30.1997 N   0  0  0  0  0  0  0  0  0  0  0  0
    8.0712   26.0056   31.4507 C   0  0  0  0  0  0  0  0  0  0  0  0
    7.8964   27.4137   31.3039 O   0  0  0  0  0  0  0  0  0  0  0  0
    8.4466   24.0604   30.0676 N   0  0  0  0  0  0  0  0  0  0  0  0
   10.0793   22.4430   26.1493 C   0  0  0  0  0  0  0  0  0  0  0  0
   11.1910   21.6189   26.3913 C   0  0  0  0  0  0  0  0  0  0  0  0
   12.3781   21.7622   25.6713 C   0  0  0  0  0  0  0  0  0  0  0  0
   12.4844   22.7475   24.6982 C   0  0  0  0  0  0  0  0  0  0  0  0
   11.4060   23.5938   24.4561 C   0  0  0  0  0  0  0  0  0  0  0  0
   10.2108   23.4376   25.1660 C   0  0  0  0  0  0  0  0  0  0  0  0
  2  1  1  6
  2  3  1  0
  3  4  1  0
  4  5  1  0
  5  6  2  0
  6  7  1  0
  7  8  1  0
  8  9  1  0
  7 10  1  0
  2 11  1  0
 11 12  2  0
 12 13  1  0
 13 14  2  0
 14 15  1  0
 15 16  2  0
 10  4  2  0
 16 11  1  0
M  END
>  <ref_pdb>  (76) 
A0359a

>  <subsites>  (76) 
4 - A0525/A/246/1

>  <HIPPO Compound ID>  (76) 
224597

>  <energy_score>  (76) 
-19.866402

>  <fragmenstein_mode>  (76) 
expansion

>  <scratch_subdir>  (76) 
/opt/xchem-fragalysis-2/maxwin/BulkDock/SCRATCH/513025/C224597-P59

>  <smiles>  (76) 
N[C@H](Nc1ccn(CO)n1)c1ccccc1

>  <alias>  (76) 
None

>  <ref_mols>  (76) 
A0229a,A0359a

>  <inspiration_score>  (76) 
None

>  <tags>  (76) 
openbind_a71ev2a_c1_fragmenstein,BulkDock Fragalysis export,fragmenstein_placed,openbind_a71ev2a_c1_scaffolds

>  <fragmenstein_outcome>  (76) 
acceptable

>  <fragmenstein_error>  (76) 


>  <distance_score>  (76) 
0.796466

>  <inchikey>  (76) 
QQECAXFDBXEVIN-UHFFFAOYSA-N

>  <name>  (76) 
P37149

>  <HIPPO Pose ID>  (76) 
37149

>  <Energy>  (76) 
-54.881304

>  <exports>  (76) 
['/opt/xchem-fragalysis-2/maxwin/BulkDock/OUTPUTS/openbind_a71ev2a_c1_fragmenstein_165VU4J.sdf', '/opt/xchem-fragalysis-2/maxwin/BulkDock/OUTPUTS/openbind_a71ev2a_c1_fragmenstein_1B07P1I.sdf', '/opt/xchem-fragalysis-2/maxwin/BulkDock/OUTPUTS/openbind_a71ev2a_c1_fragmenstein_1B07Y79.sdf', '/opt/xchem-fragalysis-2/maxwin/openbind-hippo/a71ev2a/openbind_a71ev2a_c1_scaffold_products.sdf', '/opt/xchem-fragalysis-2/maxwin/openbind-hippo/a71ev2a/cycle_01/bulkdock/openbind_a71ev2a_c1_scaffold_products.sdf', '/opt/xchem-fragalysis-2/maxwin/openbind-hippo/a71ev2a/cycle_01/bulkdock/openbind_a71ev2a_c1_scaffolds.sdf']

>  <fragmenstein_runtime>  (76) 
1.042391

$$$$
P37352
     RDKit          3D

 16 18  0  0  0  0  0  0  0  0999 V2000
    7.4044   11.4020   30.7638 C   0  0  0  0  0  0  0  0  0  0  0  0
    6.8844   10.1662   30.3827 C   0  0  0  0  0  0  0  0  0  0  0  0
    6.3157   10.0052   29.1174 C   0  0  0  0  0  0  0  0  0  0  0  0
    6.2592   11.0819   28.2190 C   0  0  0  0  0  0  0  0  0  0  0  0
    5.6447   10.9113   26.8495 C   0  0  0  0  0  0  0  0  0  0  0  0
    6.3820    9.9713   26.0382 N   0  0  0  0  0  0  0  0  0  0  0  0
    7.4796   10.2557   25.3097 C   0  0  0  0  0  0  0  0  0  0  0  0
    8.1978    9.2638   24.7637 N   0  0  0  0  0  0  0  0  0  0  0  0
    9.2190    9.8686   24.1128 N   0  0  0  0  0  0  0  0  0  0  0  0
    9.1712   11.2166   24.2437 C   0  0  0  0  0  0  0  0  0  0  0  0
    8.0543   11.4904   24.9728 C   0  0  0  0  0  0  0  0  0  0  0  0
    7.8209   13.1875   25.1954 S   0  0  0  0  0  0  0  0  0  0  0  0
    9.2610   13.6063   24.0908 C   0  0  0  0  0  0  0  0  0  0  0  0
   10.0682   12.3095   23.8234 C   0  0  0  0  0  0  0  0  0  0  0  0
    6.7688   12.3240   28.6250 C   0  0  0  0  0  0  0  0  0  0  0  0
    7.3456   12.4813   29.8860 C   0  0  0  0  0  0  0  0  0  0  0  0
  1  2  2  0
  2  3  1  0
  3  4  2  0
  4  5  1  0
  5  6  1  0
  6  7  1  0
  7  8  2  0
  8  9  1  0
  9 10  1  0
 10 11  2  0
 11 12  1  0
 12 13  1  0
 13 14  1  0
  4 15  1  0
 15 16  2  0
 16  1  1  0
 11  7  1  0
 14 10  1  0
M  END
>  <ref_pdb>  (77) 
A0365a

>  <subsites>  (77) 
1 - Active Site

>  <HIPPO Compound ID>  (77) 
224826

>  <energy_score>  (77) 
-14.594214

>  <fragmenstein_mode>  (77) 
expansion

>  <scratch_subdir>  (77) 
/opt/xchem-fragalysis-2/maxwin/BulkDock/SCRATCH/513025/C224826-P60

>  <smiles>  (77) 
c1ccc(CNc2n[nH]c3c2SCC3)cc1

>  <alias>  (77) 
None

>  <ref_mols>  (77) 
A0365a,A4650a

>  <inspiration_score>  (77) 
None

>  <tags>  (77) 
openbind_a71ev2a_c1_fragmenstein,BulkDock Fragalysis export,fragmenstein_placed,openbind_a71ev2a_c1_scaffolds

>  <fragmenstein_outcome>  (77) 
acceptable

>  <fragmenstein_error>  (77) 


>  <distance_score>  (77) 
0.655363

>  <inchikey>  (77) 
RMGPEBAHBGDSEW-UHFFFAOYSA-N

>  <name>  (77) 
P37352

>  <HIPPO Pose ID>  (77) 
37352

>  <Energy>  (77) 
8.860003

>  <exports>  (77) 
['/opt/xchem-fragalysis-2/maxwin/BulkDock/OUTPUTS/openbind_a71ev2a_c1_fragmenstein_165VU4J.sdf', '/opt/xchem-fragalysis-2/maxwin/BulkDock/OUTPUTS/openbind_a71ev2a_c1_fragmenstein_1B07P1I.sdf', '/opt/xchem-fragalysis-2/maxwin/BulkDock/OUTPUTS/openbind_a71ev2a_c1_fragmenstein_1B07Y79.sdf', '/opt/xchem-fragalysis-2/maxwin/openbind-hippo/a71ev2a/openbind_a71ev2a_c1_scaffold_products.sdf', '/opt/xchem-fragalysis-2/maxwin/openbind-hippo/a71ev2a/cycle_01/bulkdock/openbind_a71ev2a_c1_scaffold_products.sdf', '/opt/xchem-fragalysis-2/maxwin/openbind-hippo/a71ev2a/cycle_01/bulkdock/openbind_a71ev2a_c1_scaffolds.sdf']

>  <fragmenstein_runtime>  (77) 
1.832705

$$$$
P37435
     RDKit          3D

 21 22  0  0  0  0  0  0  0  0999 V2000
    8.2723   14.7438   28.3352 C   0  0  0  0  0  0  0  0  0  0  0  0
    7.7471   13.5273   27.8002 O   0  0  0  0  0  0  0  0  0  0  0  0
    7.4211   12.5401   28.6923 C   0  0  0  0  0  0  0  0  0  0  0  0
    7.9508   12.4851   29.9891 C   0  0  0  0  0  0  0  0  0  0  0  0
    7.6649   11.4141   30.8367 C   0  0  0  0  0  0  0  0  0  0  0  0
    6.8529   10.3794   30.3963 C   0  0  0  0  0  0  0  0  0  0  0  0
    6.3087   10.4309   29.1156 C   0  0  0  0  0  0  0  0  0  0  0  0
    6.5642   11.5179   28.2455 C   0  0  0  0  0  0  0  0  0  0  0  0
    5.8129   11.5054   26.9191 C   0  0  1  0  0  0  0  0  0  0  0  0
    5.4887   12.7997   26.1681 C   0  0  0  0  0  0  0  0  0  0  0  0
    4.8950   13.9289   26.9926 C   0  0  0  0  0  0  0  0  0  0  0  0
    4.9419   15.4631   26.0188 S   0  0  0  0  0  0  0  0  0  0  0  0
    6.2543   10.3785   25.9764 C   0  0  0  0  0  0  0  0  0  0  0  0
    5.4358    9.4605   25.8089 O   0  0  0  0  0  0  0  0  0  0  0  0
    7.5474   10.3625   25.2467 C   0  0  0  0  0  0  0  0  0  0  0  0
    7.9601    9.1995   24.6906 N   0  0  0  0  0  0  0  0  0  0  0  0
    9.0016    9.5220   23.9057 N   0  0  0  0  0  0  0  0  0  0  0  0
    9.5701    8.5542   22.9984 C   0  0  0  0  0  0  0  0  0  0  0  0
    9.3642   10.8262   24.0147 C   0  0  0  0  0  0  0  0  0  0  0  0
    8.4773   11.3850   24.8945 C   0  0  0  0  0  0  0  0  0  0  0  0
    8.5562   12.6831   25.2213 N   0  0  0  0  0  0  0  0  0  0  0  0
  1  2  1  0
  2  3  1  0
  3  4  2  0
  4  5  1  0
  5  6  2  0
  6  7  1  0
  7  8  2  0
  8  9  1  0
  9 10  1  6
 10 11  1  0
 11 12  1  0
  9 13  1  0
 13 14  2  0
 13 15  1  0
 15 16  2  0
 16 17  1  0
 17 18  1  0
 17 19  1  0
 19 20  2  0
 20 21  1  0
  8  3  1  0
 20 15  1  0
M  END
>  <ref_pdb>  (78) 
A0365a

>  <subsites>  (78) 
1 - Active Site

>  <HIPPO Compound ID>  (78) 
224908

>  <energy_score>  (78) 
-53.718426

>  <fragmenstein_mode>  (78) 
expansion

>  <scratch_subdir>  (78) 
/opt/xchem-fragalysis-2/maxwin/BulkDock/SCRATCH/513025/C224908-P60

>  <smiles>  (78) 
COc1ccccc1[C@@H](CCS)C(=O)c1nn(C)cc1N

>  <alias>  (78) 
None

>  <ref_mols>  (78) 
A0365a,A5249a

>  <inspiration_score>  (78) 
None

>  <tags>  (78) 
openbind_a71ev2a_c1_fragmenstein,BulkDock Fragalysis export,fragmenstein_placed,openbind_a71ev2a_c1_scaffolds

>  <fragmenstein_outcome>  (78) 
acceptable

>  <fragmenstein_error>  (78) 


>  <distance_score>  (78) 
0.758751

>  <inchikey>  (78) 
UVHVGUBWEQMBKH-UHFFFAOYSA-N

>  <name>  (78) 
P37435

>  <HIPPO Pose ID>  (78) 
37435

>  <Energy>  (78) 
93.750365

>  <exports>  (78) 
['/opt/xchem-fragalysis-2/maxwin/BulkDock/OUTPUTS/openbind_a71ev2a_c1_fragmenstein_165VU4J.sdf', '/opt/xchem-fragalysis-2/maxwin/BulkDock/OUTPUTS/openbind_a71ev2a_c1_fragmenstein_1B07P1I.sdf', '/opt/xchem-fragalysis-2/maxwin/BulkDock/OUTPUTS/openbind_a71ev2a_c1_fragmenstein_1B07Y79.sdf', '/opt/xchem-fragalysis-2/maxwin/openbind-hippo/a71ev2a/openbind_a71ev2a_c1_scaffold_products.sdf', '/opt/xchem-fragalysis-2/maxwin/openbind-hippo/a71ev2a/cycle_01/bulkdock/openbind_a71ev2a_c1_scaffold_products.sdf', '/opt/xchem-fragalysis-2/maxwin/openbind-hippo/a71ev2a/cycle_01/bulkdock/openbind_a71ev2a_c1_scaffolds.sdf']

>  <fragmenstein_runtime>  (78) 
2.223727

$$$$
P39158
     RDKit          3D

 12 13  0  0  0  0  0  0  0  0999 V2000
    5.4701   13.6813   28.0104 C   0  0  0  0  0  0  0  0  0  0  0  0
    6.0775   12.5769   27.2075 C   0  0  0  0  0  0  0  0  0  0  0  0
    5.6205   11.2169   27.4803 C   0  0  0  0  0  0  0  0  0  0  0  0
    6.1232   10.1600   26.8179 C   0  0  0  0  0  0  0  0  0  0  0  0
    7.1352   10.3553   25.8398 C   0  0  0  0  0  0  0  0  0  0  0  0
    7.8177    9.4864   25.1346 N   0  0  0  0  0  0  0  0  0  0  0  0
    8.6514   10.2316   24.3283 C   0  0  0  0  0  0  0  0  0  0  0  0
    9.5484    9.5121   23.3885 C   0  0  0  0  0  0  0  0  0  0  0  0
    8.4760   11.5929   24.5567 C   0  0  0  0  0  0  0  0  0  0  0  0
    9.0133   12.6889   24.0142 O   0  0  0  0  0  0  0  0  0  0  0  0
    7.5225   11.6612   25.5623 N   0  0  0  0  0  0  0  0  0  0  0  0
    7.0035   12.7632   26.2447 C   0  0  0  0  0  0  0  0  0  0  0  0
  1  2  1  0
  2  3  1  0
  3  4  2  0
  4  5  1  0
  5  6  2  0
  6  7  1  0
  7  8  1  0
  7  9  2  0
  9 10  1  0
  9 11  1  0
 11 12  1  0
 12  2  2  0
 11  5  1  0
M  END
>  <ref_pdb>  (79) 
A0437a

>  <subsites>  (79) 
1 - Active Site

>  <HIPPO Compound ID>  (79) 
226551

>  <energy_score>  (79) 
-29.436671

>  <fragmenstein_mode>  (79) 
expansion

>  <scratch_subdir>  (79) 
/opt/xchem-fragalysis-2/maxwin/BulkDock/SCRATCH/513025/C226551-P73

>  <smiles>  (79) 
Cc1ccc2nc(C)c(O)n2c1

>  <alias>  (79) 
None

>  <ref_mols>  (79) 
A0437a,A4826b

>  <inspiration_score>  (79) 
None

>  <tags>  (79) 
openbind_a71ev2a_c1_fragmenstein,BulkDock Fragalysis export,fragmenstein_placed,openbind_a71ev2a_c1_scaffolds

>  <fragmenstein_outcome>  (79) 
acceptable

>  <fragmenstein_error>  (79) 


>  <distance_score>  (79) 
0.948752

>  <inchikey>  (79) 
NIPJUCNGLLJJFA-UHFFFAOYSA-N

>  <name>  (79) 
P39158

>  <HIPPO Pose ID>  (79) 
39158

>  <Energy>  (79) 
43.030983

>  <exports>  (79) 
['/opt/xchem-fragalysis-2/maxwin/BulkDock/OUTPUTS/openbind_a71ev2a_c1_fragmenstein_165VU4J.sdf', '/opt/xchem-fragalysis-2/maxwin/BulkDock/OUTPUTS/openbind_a71ev2a_c1_fragmenstein_1B07P1I.sdf', '/opt/xchem-fragalysis-2/maxwin/BulkDock/OUTPUTS/openbind_a71ev2a_c1_fragmenstein_1B07Y79.sdf', '/opt/xchem-fragalysis-2/maxwin/openbind-hippo/a71ev2a/openbind_a71ev2a_c1_scaffold_products.sdf', '/opt/xchem-fragalysis-2/maxwin/openbind-hippo/a71ev2a/cycle_01/bulkdock/openbind_a71ev2a_c1_scaffold_products.sdf', '/opt/xchem-fragalysis-2/maxwin/openbind-hippo/a71ev2a/cycle_01/bulkdock/openbind_a71ev2a_c1_scaffolds.sdf']

>  <fragmenstein_runtime>  (79) 
0.866757

$$$$
P39709
     RDKit          3D

 10 10  0  0  0  0  0  0  0  0999 V2000
    9.8797    9.2877   22.9767 C   0  0  0  0  0  0  0  0  0  0  0  0
    9.3661   10.4729   23.7163 C   0  0  0  0  0  0  0  0  0  0  0  0
    8.3181   10.3953   24.6326 C   0  0  0  0  0  0  0  0  0  0  0  0
    7.7973   11.5519   25.2059 C   0  0  0  0  0  0  0  0  0  0  0  0
    8.3825   12.7828   24.9233 C   0  0  0  0  0  0  0  0  0  0  0  0
    9.5012   12.8609   24.0812 C   0  0  0  0  0  0  0  0  0  0  0  0
   10.2562   14.1595   23.9324 C   0  0  0  0  0  0  0  0  0  0  0  0
   11.0179   14.4037   25.2313 C   0  0  0  0  0  0  0  0  0  0  0  0
   11.2287   14.2380   22.7498 C   0  0  0  0  0  0  0  0  0  0  0  0
    9.9473   11.7053   23.4562 C   0  0  0  0  0  0  0  0  0  0  0  0
  1  2  1  0
  2  3  2  0
  3  4  1  0
  4  5  2  0
  5  6  1  0
  6  7  1  0
  7  8  1  0
  7  9  1  0
  6 10  2  0
 10  2  1  0
M  END
>  <ref_pdb>  (80) 
A0719a

>  <subsites>  (80) 
1 - Active Site

>  <HIPPO Compound ID>  (80) 
193943

>  <energy_score>  (80) 
-14.139468

>  <fragmenstein_mode>  (80) 
expansion

>  <scratch_subdir>  (80) 
/opt/xchem-fragalysis-2/maxwin/BulkDock/SCRATCH/513025/C193943-P77

>  <smiles>  (80) 
Cc1cccc(C(C)C)c1

>  <alias>  (80) 
None

>  <ref_mols>  (80) 
A2513a,A2454a,A0719a,A0451a

>  <inspiration_score>  (80) 
None

>  <tags>  (80) 
openbind_a71ev2a_c1_fragmenstein,BulkDock Fragalysis export,fragmenstein_placed,openbind_a71ev2a_c1_scaffolds

>  <fragmenstein_outcome>  (80) 
acceptable

>  <fragmenstein_error>  (80) 


>  <distance_score>  (80) 
0.810617

>  <inchikey>  (80) 
XCYJPXQACVEIOS-UHFFFAOYSA-N

>  <name>  (80) 
P39709

>  <HIPPO Pose ID>  (80) 
39709

>  <Energy>  (80) 
29.665289

>  <exports>  (80) 
['/opt/xchem-fragalysis-2/maxwin/BulkDock/OUTPUTS/openbind_a71ev2a_c1_fragmenstein_165VU4J.sdf', '/opt/xchem-fragalysis-2/maxwin/BulkDock/OUTPUTS/openbind_a71ev2a_c1_fragmenstein_1B07P1I.sdf', '/opt/xchem-fragalysis-2/maxwin/BulkDock/OUTPUTS/openbind_a71ev2a_c1_fragmenstein_1B07Y79.sdf', '/opt/xchem-fragalysis-2/maxwin/openbind-hippo/a71ev2a/openbind_a71ev2a_c1_scaffold_products.sdf', '/opt/xchem-fragalysis-2/maxwin/openbind-hippo/a71ev2a/cycle_01/bulkdock/openbind_a71ev2a_c1_scaffold_products.sdf', '/opt/xchem-fragalysis-2/maxwin/openbind-hippo/a71ev2a/cycle_01/bulkdock/openbind_a71ev2a_c1_scaffolds.sdf']

>  <fragmenstein_runtime>  (80) 
2.16304

$$$$
P42916
     RDKit          3D

 17 19  0  0  0  0  0  0  0  0999 V2000
    7.4432   11.7188   24.5161 F   0  0  0  0  0  0  0  0  0  0  0  0
    8.7727   11.6069   24.4374 C   0  0  0  0  0  0  0  0  0  0  0  0
    9.4076   10.3841   24.5347 C   0  0  0  0  0  0  0  0  0  0  0  0
   10.8054   10.3179   24.5769 C   0  0  0  0  0  0  0  0  0  0  0  0
   11.6286   11.4824   24.5891 C   0  0  0  0  0  0  0  0  0  0  0  0
   13.0973   11.3285   24.9425 C   0  0  0  0  0  0  0  0  0  0  0  0
   14.0859   12.4386   25.3213 C   0  0  2  0  0  0  0  0  0  0  0  0
   15.5263   12.0062   24.9825 C   0  0  0  0  0  0  0  0  0  0  0  0
   16.1595   11.1967   26.1017 C   0  0  0  0  0  0  0  0  0  0  0  0
   16.2742   12.0351   27.3738 C   0  0  0  0  0  0  0  0  0  0  0  0
   15.3019   13.1326   27.4413 N   0  0  0  0  0  0  0  0  0  0  0  0
   14.0242   12.7463   26.8441 C   0  0  0  0  0  0  0  0  0  0  0  0
   10.9626   12.6840   24.3314 C   0  0  0  0  0  0  0  0  0  0  0  0
   11.4746   13.9323   24.1423 N   0  0  0  0  0  0  0  0  0  0  0  0
   10.4488   14.6636   23.7820 C   0  0  0  0  0  0  0  0  0  0  0  0
    9.2696   14.0038   23.9394 N   0  0  0  0  0  0  0  0  0  0  0  0
    9.5742   12.7131   24.2479 C   0  0  0  0  0  0  0  0  0  0  0  0
  1  2  1  0
  2  3  2  0
  3  4  1  0
  4  5  2  0
  5  6  1  0
  7  6  1  1
  7  8  1  0
  8  9  1  0
  9 10  1  0
 10 11  1  0
 11 12  1  0
  5 13  1  0
 13 14  1  0
 14 15  2  0
 15 16  1  0
 16 17  1  0
 17  2  1  0
 12  7  1  0
 17 13  2  0
M  END
>  <ref_pdb>  (81) 
A1140a

>  <subsites>  (81) 
1 - Active Site

>  <HIPPO Compound ID>  (81) 
270367

>  <energy_score>  (81) 
-2.959909

>  <fragmenstein_mode>  (81) 
expansion

>  <scratch_subdir>  (81) 
/opt/xchem-fragalysis-2/maxwin/BulkDock/SCRATCH/513026/C270367-P106

>  <smiles>  (81) 
Fc1ccc(C[C@@H]2CCCNC2)c2nc[nH]c12

>  <alias>  (81) 
None

>  <ref_mols>  (81) 
A4786a,A1140a

>  <inspiration_score>  (81) 
None

>  <tags>  (81) 
openbind_a71ev2a_c1_fragmenstein,BulkDock Fragalysis export,fragmenstein_placed,openbind_a71ev2a_c1_scaffolds

>  <fragmenstein_outcome>  (81) 
acceptable

>  <fragmenstein_error>  (81) 


>  <distance_score>  (81) 
0.972158

>  <inchikey>  (81) 
KVOJUNAPEGTLGD-UHFFFAOYSA-N

>  <name>  (81) 
P42916

>  <HIPPO Pose ID>  (81) 
42916

>  <Energy>  (81) 
34.53657

>  <exports>  (81) 
['/opt/xchem-fragalysis-2/maxwin/BulkDock/OUTPUTS/openbind_a71ev2a_c1_fragmenstein_165VU4J.sdf', '/opt/xchem-fragalysis-2/maxwin/BulkDock/OUTPUTS/openbind_a71ev2a_c1_fragmenstein_1B07P1I.sdf', '/opt/xchem-fragalysis-2/maxwin/BulkDock/OUTPUTS/openbind_a71ev2a_c1_fragmenstein_1B07Y79.sdf', '/opt/xchem-fragalysis-2/maxwin/openbind-hippo/a71ev2a/openbind_a71ev2a_c1_scaffold_products.sdf', '/opt/xchem-fragalysis-2/maxwin/openbind-hippo/a71ev2a/cycle_01/bulkdock/openbind_a71ev2a_c1_scaffold_products.sdf', '/opt/xchem-fragalysis-2/maxwin/openbind-hippo/a71ev2a/cycle_01/bulkdock/openbind_a71ev2a_c1_scaffolds.sdf']

>  <fragmenstein_runtime>  (81) 
1.858688

$$$$
P45204
     RDKit          3D

 21 23  0  0  0  0  0  0  0  0999 V2000
   12.2918   14.3746   21.4970 C   0  0  0  0  0  0  0  0  0  0  0  0
   11.5694   13.3368   22.1650 N   0  0  0  0  0  0  0  0  0  0  0  0
   11.0522   13.2506   23.6085 C   0  0  0  0  0  0  0  0  0  0  0  0
   11.1978   13.9781   24.5087 O   0  0  0  0  0  0  0  0  0  0  0  0
   10.2511   12.0138   23.7659 C   0  0  0  0  0  0  0  0  0  0  0  0
   10.4170   10.9371   22.9830 N   0  0  0  0  0  0  0  0  0  0  0  0
    9.5895   10.0061   23.5008 N   0  0  0  0  0  0  0  0  0  0  0  0
    9.6035    8.6780   22.9397 C   0  0  0  0  0  0  0  0  0  0  0  0
    8.7948   10.4739   24.5149 C   0  0  0  0  0  0  0  0  0  0  0  0
    7.7634    9.9048   25.2769 C   0  0  0  0  0  0  0  0  0  0  0  0
    7.0856   10.7339   26.1840 C   0  0  0  0  0  0  0  0  0  0  0  0
    7.4638   12.0662   26.3608 C   0  0  0  0  0  0  0  0  0  0  0  0
    6.6381   12.9831   27.0573 N   0  0  0  0  0  0  0  0  0  0  0  0
    6.2315   14.1436   26.4769 C   0  0  0  0  0  0  0  0  0  0  0  0
    5.2843   15.0271   27.0349 C   0  0  0  0  0  0  0  0  0  0  0  0
    5.0339   15.9510   26.0437 C   0  0  0  0  0  0  0  0  0  0  0  0
    5.8019   15.5650   24.9877 N   0  0  0  0  0  0  0  0  0  0  0  0
    5.7575   16.0146   23.6249 C   0  0  0  0  0  0  0  0  0  0  0  0
    6.6281   14.5721   25.2792 N   0  0  0  0  0  0  0  0  0  0  0  0
    8.5773   12.5629   25.6657 C   0  0  0  0  0  0  0  0  0  0  0  0
    9.2170   11.7821   24.7052 C   0  0  0  0  0  0  0  0  0  0  0  0
  1  2  1  0
  2  3  1  0
  3  4  2  0
  3  5  1  0
  5  6  2  0
  6  7  1  0
  7  8  1  0
  7  9  1  0
  9 10  2  0
 10 11  1  0
 11 12  2  0
 12 13  1  0
 13 14  1  0
 14 15  1  0
 15 16  2  0
 16 17  1  0
 17 18  1  0
 17 19  1  0
 12 20  1  0
 20 21  2  0
 21  5  1  0
 21  9  1  0
 19 14  2  0
M  END
>  <ref_pdb>  (82) 
A2290a

>  <subsites>  (82) 
1 - Active Site

>  <HIPPO Compound ID>  (82) 
204769

>  <energy_score>  (82) 
-23.260363

>  <fragmenstein_mode>  (82) 
expansion

>  <scratch_subdir>  (82) 
/opt/xchem-fragalysis-2/maxwin/BulkDock/SCRATCH/513027/C204769-P126

>  <smiles>  (82) 
CNC(=O)c1nn(C)c2ccc(Nc3ccn(C)n3)cc12

>  <alias>  (82) 
None

>  <ref_mols>  (82) 
A3279a,A2290a

>  <inspiration_score>  (82) 
None

>  <tags>  (82) 
openbind_a71ev2a_c1_fragmenstein,BulkDock Fragalysis export,fragmenstein_placed,openbind_a71ev2a_c1_scaffolds

>  <fragmenstein_outcome>  (82) 
acceptable

>  <fragmenstein_error>  (82) 


>  <distance_score>  (82) 
0.621399

>  <inchikey>  (82) 
BULUSAUFSRPROH-UHFFFAOYSA-N

>  <name>  (82) 
P45204

>  <HIPPO Pose ID>  (82) 
45204

>  <Energy>  (82) 
38.415116

>  <exports>  (82) 
['/opt/xchem-fragalysis-2/maxwin/BulkDock/OUTPUTS/openbind_a71ev2a_c1_fragmenstein_165VU4J.sdf', '/opt/xchem-fragalysis-2/maxwin/BulkDock/OUTPUTS/openbind_a71ev2a_c1_fragmenstein_1B07P1I.sdf', '/opt/xchem-fragalysis-2/maxwin/BulkDock/OUTPUTS/openbind_a71ev2a_c1_fragmenstein_1B07Y79.sdf', '/opt/xchem-fragalysis-2/maxwin/openbind-hippo/a71ev2a/openbind_a71ev2a_c1_scaffold_products.sdf', '/opt/xchem-fragalysis-2/maxwin/openbind-hippo/a71ev2a/cycle_01/bulkdock/openbind_a71ev2a_c1_scaffold_products.sdf', '/opt/xchem-fragalysis-2/maxwin/openbind-hippo/a71ev2a/cycle_01/bulkdock/openbind_a71ev2a_c1_scaffolds.sdf']

>  <fragmenstein_runtime>  (82) 
1.889432

$$$$
P45214
     RDKit          3D

 19 21  0  0  0  0  0  0  0  0999 V2000
    9.4659    8.6688   23.0564 C   0  0  0  0  0  0  0  0  0  0  0  0
    9.4235    9.9783   23.6596 N   0  0  0  0  0  0  0  0  0  0  0  0
   10.2717   10.9081   23.2008 N   0  0  0  0  0  0  0  0  0  0  0  0
   10.0000   12.0046   23.9270 C   0  0  0  0  0  0  0  0  0  0  0  0
   10.7777   13.2341   23.7192 C   0  0  0  0  0  0  0  0  0  0  0  0
   10.8654   14.0552   24.5414 O   0  0  0  0  0  0  0  0  0  0  0  0
   11.3283   13.1962   22.2897 N   0  0  0  0  0  0  0  0  0  0  0  0
   12.0185   14.1899   21.5360 C   0  0  0  0  0  0  0  0  0  0  0  0
   10.9969   14.9235   20.7593 C   0  0  0  0  0  0  0  0  0  0  0  0
   10.7989   14.9913   19.4014 C   0  0  0  0  0  0  0  0  0  0  0  0
    9.8102   15.8999   19.1618 O   0  0  0  0  0  0  0  0  0  0  0  0
    9.4550   16.3293   20.3988 C   0  0  0  0  0  0  0  0  0  0  0  0
   10.0779   15.7293   21.3835 N   0  0  0  0  0  0  0  0  0  0  0  0
    8.9127   11.7812   24.8118 C   0  0  0  0  0  0  0  0  0  0  0  0
    8.1718   12.5627   25.7189 C   0  0  0  0  0  0  0  0  0  0  0  0
    7.1336   11.9676   26.4436 C   0  0  0  0  0  0  0  0  0  0  0  0
    6.8378   10.6169   26.2795 C   0  0  0  0  0  0  0  0  0  0  0  0
    7.5569    9.8290   25.3762 C   0  0  0  0  0  0  0  0  0  0  0  0
    8.5786   10.4393   24.6392 C   0  0  0  0  0  0  0  0  0  0  0  0
  1  2  1  0
  2  3  1  0
  3  4  2  0
  4  5  1  0
  5  6  2  0
  5  7  1  0
  7  8  1  0
  8  9  1  0
  9 10  2  0
 10 11  1  0
 11 12  1  0
 12 13  2  0
  4 14  1  0
 14 15  2  0
 15 16  1  0
 16 17  2  0
 17 18  1  0
 18 19  2  0
 19  2  1  0
 13  9  1  0
 19 14  1  0
M  END
>  <ref_pdb>  (83) 
A2290a

>  <subsites>  (83) 
1 - Active Site

>  <HIPPO Compound ID>  (83) 
204781

>  <energy_score>  (83) 
-32.357413

>  <fragmenstein_mode>  (83) 
expansion

>  <scratch_subdir>  (83) 
/opt/xchem-fragalysis-2/maxwin/BulkDock/SCRATCH/513027/C204781-P126

>  <smiles>  (83) 
Cn1nc(C(=O)NCc2cocn2)c2ccccc21

>  <alias>  (83) 
None

>  <ref_mols>  (83) 
A3403a,A2290a

>  <inspiration_score>  (83) 
None

>  <tags>  (83) 
openbind_a71ev2a_c1_fragmenstein,BulkDock Fragalysis export,fragmenstein_placed,openbind_a71ev2a_c1_scaffolds

>  <fragmenstein_outcome>  (83) 
acceptable

>  <fragmenstein_error>  (83) 


>  <distance_score>  (83) 
0.6943

>  <inchikey>  (83) 
GJSLUQQORYADDA-UHFFFAOYSA-N

>  <name>  (83) 
P45214

>  <HIPPO Pose ID>  (83) 
45214

>  <Energy>  (83) 
63.462466

>  <exports>  (83) 
['/opt/xchem-fragalysis-2/maxwin/BulkDock/OUTPUTS/openbind_a71ev2a_c1_fragmenstein_165VU4J.sdf', '/opt/xchem-fragalysis-2/maxwin/BulkDock/OUTPUTS/openbind_a71ev2a_c1_fragmenstein_1B07P1I.sdf', '/opt/xchem-fragalysis-2/maxwin/BulkDock/OUTPUTS/openbind_a71ev2a_c1_fragmenstein_1B07Y79.sdf', '/opt/xchem-fragalysis-2/maxwin/openbind-hippo/a71ev2a/openbind_a71ev2a_c1_scaffold_products.sdf', '/opt/xchem-fragalysis-2/maxwin/openbind-hippo/a71ev2a/cycle_01/bulkdock/openbind_a71ev2a_c1_scaffold_products.sdf', '/opt/xchem-fragalysis-2/maxwin/openbind-hippo/a71ev2a/cycle_01/bulkdock/openbind_a71ev2a_c1_scaffolds.sdf']

>  <fragmenstein_runtime>  (83) 
1.979324

$$$$
P45216
     RDKit          3D

 20 22  0  0  0  0  0  0  0  0999 V2000
    9.3292    8.7636   23.1772 C   0  0  0  0  0  0  0  0  0  0  0  0
    9.1883   10.0280   23.8580 N   0  0  0  0  0  0  0  0  0  0  0  0
   10.0254   11.0209   23.5199 N   0  0  0  0  0  0  0  0  0  0  0  0
    9.6826   12.0353   24.3356 C   0  0  0  0  0  0  0  0  0  0  0  0
   10.4689   13.2728   24.3591 C   0  0  0  0  0  0  0  0  0  0  0  0
   10.3470   14.0712   25.1975 O   0  0  0  0  0  0  0  0  0  0  0  0
   11.3450   13.2759   23.1073 N   0  0  0  0  0  0  0  0  0  0  0  0
   12.3251   14.2113   22.6647 C   0  0  0  0  0  0  0  0  0  0  0  0
   12.3530   14.3672   21.1618 C   0  0  0  0  0  0  0  0  0  0  0  0
   11.1093   14.9501   20.6120 C   0  0  0  0  0  0  0  0  0  0  0  0
   10.7262   15.0449   19.2997 C   0  0  0  0  0  0  0  0  0  0  0  0
    9.6494   15.8725   19.2276 O   0  0  0  0  0  0  0  0  0  0  0  0
    9.4263   16.2265   20.5194 C   0  0  0  0  0  0  0  0  0  0  0  0
   10.2276   15.6564   21.3873 N   0  0  0  0  0  0  0  0  0  0  0  0
    8.5512   11.7173   25.1195 C   0  0  0  0  0  0  0  0  0  0  0  0
    7.7571   12.4031   26.0570 C   0  0  0  0  0  0  0  0  0  0  0  0
    6.7251   11.7195   26.7009 C   0  0  0  0  0  0  0  0  0  0  0  0
    6.4945   10.3755   26.4278 C   0  0  0  0  0  0  0  0  0  0  0  0
    7.2705    9.6881   25.4899 C   0  0  0  0  0  0  0  0  0  0  0  0
    8.2847   10.3834   24.8302 C   0  0  0  0  0  0  0  0  0  0  0  0
  1  2  1  0
  2  3  1  0
  3  4  2  0
  4  5  1  0
  5  6  2  0
  5  7  1  0
  7  8  1  0
  8  9  1  0
  9 10  1  0
 10 11  2  0
 11 12  1  0
 12 13  1  0
 13 14  2  0
  4 15  1  0
 15 16  2  0
 16 17  1  0
 17 18  2  0
 18 19  1  0
 19 20  2  0
 20  2  1  0
 14 10  1  0
 20 15  1  0
M  END
>  <ref_pdb>  (84) 
A2290a

>  <subsites>  (84) 
1 - Active Site

>  <HIPPO Compound ID>  (84) 
107

>  <energy_score>  (84) 
-27.234092

>  <fragmenstein_mode>  (84) 
expansion

>  <scratch_subdir>  (84) 
/opt/xchem-fragalysis-2/maxwin/BulkDock/SCRATCH/513027/C107-P126

>  <smiles>  (84) 
Cn1nc(C(=O)NCCc2cocn2)c2ccccc21

>  <alias>  (84) 
None

>  <ref_mols>  (84) 
A2290a,A3436a

>  <inspiration_score>  (84) 
None

>  <tags>  (84) 
openbind_a71ev2a_c1_fragmenstein,BulkDock Fragalysis export,fragmenstein_placed,openbind_a71ev2a_c1_scaffolds

>  <fragmenstein_outcome>  (84) 
acceptable

>  <fragmenstein_error>  (84) 


>  <distance_score>  (84) 
0.542984

>  <inchikey>  (84) 
ONGQCMNCDUWDOR-UHFFFAOYSA-N

>  <name>  (84) 
P45216

>  <HIPPO Pose ID>  (84) 
45216

>  <Energy>  (84) 
73.960287

>  <exports>  (84) 
['/opt/xchem-fragalysis-2/maxwin/BulkDock/OUTPUTS/openbind_a71ev2a_c1_fragmenstein_165VU4J.sdf', '/opt/xchem-fragalysis-2/maxwin/BulkDock/OUTPUTS/openbind_a71ev2a_c1_fragmenstein_1B07P1I.sdf', '/opt/xchem-fragalysis-2/maxwin/BulkDock/OUTPUTS/openbind_a71ev2a_c1_fragmenstein_1B07Y79.sdf', '/opt/xchem-fragalysis-2/maxwin/openbind-hippo/a71ev2a/openbind_a71ev2a_c1_scaffold_products.sdf', '/opt/xchem-fragalysis-2/maxwin/openbind-hippo/a71ev2a/cycle_01/bulkdock/openbind_a71ev2a_c1_scaffold_products.sdf', '/opt/xchem-fragalysis-2/maxwin/openbind-hippo/a71ev2a/cycle_01/bulkdock/openbind_a71ev2a_c1_scaffolds.sdf']

>  <fragmenstein_runtime>  (84) 
2.309117

$$$$
P45418
     RDKit          3D

 27 30  0  0  0  0  0  0  0  0999 V2000
    6.5207   13.7449   27.7295 C   0  0  0  0  0  0  0  0  0  0  0  0
    6.0737   12.5980   26.8700 C   0  0  0  0  0  0  0  0  0  0  0  0
    4.9318   12.1474   26.9625 O   0  0  0  0  0  0  0  0  0  0  0  0
    7.0472   11.9460   25.9710 C   0  0  0  0  0  0  0  0  0  0  0  0
    6.9795   10.5575   25.8467 C   0  0  0  0  0  0  0  0  0  0  0  0
    7.8547    9.8774   25.0042 C   0  0  0  0  0  0  0  0  0  0  0  0
    8.7730   10.6285   24.2718 C   0  0  0  0  0  0  0  0  0  0  0  0
    8.8638   12.0108   24.3835 C   0  0  0  0  0  0  0  0  0  0  0  0
    7.9936   12.6899   25.2577 C   0  0  0  0  0  0  0  0  0  0  0  0
    9.9051   12.3869   23.4915 C   0  0  0  0  0  0  0  0  0  0  0  0
   10.4020   13.7536   23.2353 C   0  0  0  0  0  0  0  0  0  0  0  0
    9.9706   14.6541   23.8331 O   0  0  0  0  0  0  0  0  0  0  0  0
   11.5002   13.7044   22.1661 N   0  0  0  0  0  0  0  0  0  0  0  0
   12.3742   14.7441   21.6678 C   0  0  0  0  0  0  0  0  0  0  0  0
   12.4318   14.7872   20.1312 C   0  0  2  0  0  0  0  0  0  0  0  0
   13.2180   15.9948   19.5911 C   0  0  0  0  0  0  0  0  0  0  0  0
   12.4199   17.2748   19.5739 C   0  0  0  0  0  0  0  0  0  0  0  0
   13.0686   18.5102   19.4343 C   0  0  0  0  0  0  0  0  0  0  0  0
   12.3377   19.6965   19.4717 C   0  0  0  0  0  0  0  0  0  0  0  0
   10.9553   19.6509   19.6301 C   0  0  0  0  0  0  0  0  0  0  0  0
   10.2994   18.4217   19.7187 C   0  0  0  0  0  0  0  0  0  0  0  0
   11.0214   17.2238   19.6803 C   0  0  0  0  0  0  0  0  0  0  0  0
   10.2893   15.9105   19.8253 C   0  0  0  0  0  0  0  0  0  0  0  0
   11.0967   14.7326   19.5378 N   0  0  0  0  0  0  0  0  0  0  0  0
   10.4362   11.3098   22.8851 N   0  0  0  0  0  0  0  0  0  0  0  0
    9.7076   10.2727   23.3361 N   0  0  0  0  0  0  0  0  0  0  0  0
    9.9611    8.9491   22.8130 C   0  0  0  0  0  0  0  0  0  0  0  0
  1  2  1  0
  2  3  2  0
  2  4  1  0
  4  5  2  0
  5  6  1  0
  6  7  2  0
  7  8  1  0
  8  9  2  0
  8 10  1  0
 10 11  1  0
 11 12  2  0
 11 13  1  0
 13 14  1  0
 15 14  1  1
 15 16  1  0
 16 17  1  0
 17 18  2  0
 18 19  1  0
 19 20  2  0
 20 21  1  0
 21 22  2  0
 22 23  1  0
 23 24  1  0
 10 25  2  0
 25 26  1  0
 26 27  1  0
  9  4  1  0
 24 15  1  0
 26  7  1  0
 22 17  1  0
M  END
>  <ref_pdb>  (85) 
A2293a

>  <subsites>  (85) 
1 - Active Site

>  <HIPPO Compound ID>  (85) 
205051

>  <energy_score>  (85) 
-58.079144

>  <fragmenstein_mode>  (85) 
expansion

>  <scratch_subdir>  (85) 
/opt/xchem-fragalysis-2/maxwin/BulkDock/SCRATCH/513027/C205051-P127

>  <smiles>  (85) 
CC(=O)c1ccc2c(c1)c(C(=O)NC[C@@H]1Cc3ccccc3CN1)nn2C

>  <alias>  (85) 
None

>  <ref_mols>  (85) 
A0554a,A2293a

>  <inspiration_score>  (85) 
None

>  <tags>  (85) 
openbind_a71ev2a_c1_fragmenstein,BulkDock Fragalysis export,fragmenstein_placed,openbind_a71ev2a_c1_scaffolds

>  <fragmenstein_outcome>  (85) 
acceptable

>  <fragmenstein_error>  (85) 


>  <distance_score>  (85) 
0.547861

>  <inchikey>  (85) 
HGBAQJNRTBXKBY-UHFFFAOYSA-N

>  <name>  (85) 
P45418

>  <HIPPO Pose ID>  (85) 
45418

>  <Energy>  (85) 
119.573346

>  <exports>  (85) 
['/opt/xchem-fragalysis-2/maxwin/BulkDock/OUTPUTS/openbind_a71ev2a_c1_fragmenstein_165VU4J.sdf', '/opt/xchem-fragalysis-2/maxwin/BulkDock/OUTPUTS/openbind_a71ev2a_c1_fragmenstein_1B07P1I.sdf', '/opt/xchem-fragalysis-2/maxwin/BulkDock/OUTPUTS/openbind_a71ev2a_c1_fragmenstein_1B07Y79.sdf', '/opt/xchem-fragalysis-2/maxwin/openbind-hippo/a71ev2a/openbind_a71ev2a_c1_scaffold_products.sdf', '/opt/xchem-fragalysis-2/maxwin/openbind-hippo/a71ev2a/cycle_01/bulkdock/openbind_a71ev2a_c1_scaffold_products.sdf', '/opt/xchem-fragalysis-2/maxwin/openbind-hippo/a71ev2a/cycle_01/bulkdock/openbind_a71ev2a_c1_scaffolds.sdf']

>  <fragmenstein_runtime>  (85) 
5.838465

$$$$
P45427
     RDKit          3D

 25 28  0  0  0  0  0  0  0  0999 V2000
    9.9021    8.9735   22.8481 C   0  0  0  0  0  0  0  0  0  0  0  0
    9.6364   10.3058   23.3416 N   0  0  0  0  0  0  0  0  0  0  0  0
   10.3518   11.3358   22.8562 N   0  0  0  0  0  0  0  0  0  0  0  0
    9.8365   12.4236   23.4599 C   0  0  0  0  0  0  0  0  0  0  0  0
   10.3574   13.7860   23.2067 C   0  0  0  0  0  0  0  0  0  0  0  0
    9.9618   14.6818   23.8356 O   0  0  0  0  0  0  0  0  0  0  0  0
   11.4669   13.7266   22.1492 N   0  0  0  0  0  0  0  0  0  0  0  0
   12.2659   14.7782   21.5687 C   0  0  0  0  0  0  0  0  0  0  0  0
   12.2341   14.8254   20.0287 C   0  0  2  0  0  0  0  0  0  0  0  0
   13.1170   15.9651   19.4749 C   0  0  0  0  0  0  0  0  0  0  0  0
   12.4422   17.3146   19.5017 C   0  0  0  0  0  0  0  0  0  0  0  0
   13.1935   18.4878   19.3502 C   0  0  0  0  0  0  0  0  0  0  0  0
   12.5713   19.7349   19.4075 C   0  0  0  0  0  0  0  0  0  0  0  0
   11.1954   19.8146   19.6025 C   0  0  0  0  0  0  0  0  0  0  0  0
   10.4379   18.6504   19.7133 C   0  0  0  0  0  0  0  0  0  0  0  0
   11.0506   17.3941   19.6566 C   0  0  0  0  0  0  0  0  0  0  0  0
   10.2068   16.1598   19.8394 C   0  0  0  0  0  0  0  0  0  0  0  0
   10.8695   14.9107   19.4792 N   0  0  0  0  0  0  0  0  0  0  0  0
    8.8130   12.0579   24.3811 C   0  0  0  0  0  0  0  0  0  0  0  0
    7.9735   12.7422   25.2810 C   0  0  0  0  0  0  0  0  0  0  0  0
    7.0602   12.0092   26.0360 C   0  0  0  0  0  0  0  0  0  0  0  0
    6.2337   12.6442   26.8785 F   0  0  0  0  0  0  0  0  0  0  0  0
    6.9835   10.6273   25.9412 C   0  0  0  0  0  0  0  0  0  0  0  0
    7.8193    9.9335   25.0662 C   0  0  0  0  0  0  0  0  0  0  0  0
    8.7180   10.6726   24.2907 C   0  0  0  0  0  0  0  0  0  0  0  0
  1  2  1  0
  2  3  1  0
  3  4  2  0
  4  5  1  0
  5  6  2  0
  5  7  1  0
  7  8  1  0
  9  8  1  1
  9 10  1  0
 10 11  1  0
 11 12  2  0
 12 13  1  0
 13 14  2  0
 14 15  1  0
 15 16  2  0
 16 17  1  0
 17 18  1  0
  4 19  1  0
 19 20  2  0
 20 21  1  0
 21 22  1  0
 21 23  2  0
 23 24  1  0
 24 25  2  0
 25  2  1  0
 18  9  1  0
 25 19  1  0
 16 11  1  0
M  END
>  <ref_pdb>  (86) 
A2293a

>  <subsites>  (86) 
1 - Active Site

>  <HIPPO Compound ID>  (86) 
205067

>  <energy_score>  (86) 
-25.795402

>  <fragmenstein_mode>  (86) 
expansion

>  <scratch_subdir>  (86) 
/opt/xchem-fragalysis-2/maxwin/BulkDock/SCRATCH/513027/C205067-P127

>  <smiles>  (86) 
Cn1nc(C(=O)NC[C@@H]2Cc3ccccc3CN2)c2cc(F)ccc21

>  <alias>  (86) 
None

>  <ref_mols>  (86) 
A0884a,A2293a

>  <inspiration_score>  (86) 
None

>  <tags>  (86) 
openbind_a71ev2a_c1_fragmenstein,BulkDock Fragalysis export,fragmenstein_placed,openbind_a71ev2a_c1_scaffolds

>  <fragmenstein_outcome>  (86) 
acceptable

>  <fragmenstein_error>  (86) 


>  <distance_score>  (86) 
0.52956

>  <inchikey>  (86) 
IUKJWGRXOODHIO-UHFFFAOYSA-N

>  <name>  (86) 
P45427

>  <HIPPO Pose ID>  (86) 
45427

>  <Energy>  (86) 
98.664354

>  <exports>  (86) 
['/opt/xchem-fragalysis-2/maxwin/BulkDock/OUTPUTS/openbind_a71ev2a_c1_fragmenstein_165VU4J.sdf', '/opt/xchem-fragalysis-2/maxwin/BulkDock/OUTPUTS/openbind_a71ev2a_c1_fragmenstein_1B07P1I.sdf', '/opt/xchem-fragalysis-2/maxwin/BulkDock/OUTPUTS/openbind_a71ev2a_c1_fragmenstein_1B07Y79.sdf', '/opt/xchem-fragalysis-2/maxwin/openbind-hippo/a71ev2a/openbind_a71ev2a_c1_scaffold_products.sdf', '/opt/xchem-fragalysis-2/maxwin/openbind-hippo/a71ev2a/cycle_01/bulkdock/openbind_a71ev2a_c1_scaffold_products.sdf', '/opt/xchem-fragalysis-2/maxwin/openbind-hippo/a71ev2a/cycle_01/bulkdock/openbind_a71ev2a_c1_scaffolds.sdf']

>  <fragmenstein_runtime>  (86) 
2.675242

$$$$
P45445
     RDKit          3D

 27 30  0  0  0  0  0  0  0  0999 V2000
    9.7581    8.9774   22.8196 C   0  0  0  0  0  0  0  0  0  0  0  0
    9.5241   10.3111   23.3346 N   0  0  0  0  0  0  0  0  0  0  0  0
   10.2209   11.3068   22.7999 N   0  0  0  0  0  0  0  0  0  0  0  0
    9.9071   12.3884   23.5227 C   0  0  0  0  0  0  0  0  0  0  0  0
   10.5055   13.7512   23.1497 C   0  0  2  0  0  0  0  0  0  0  0  0
    9.3900   14.6473   22.6832 N   0  0  0  0  0  0  0  0  0  0  0  0
    8.8323   14.2378   21.6574 O   0  0  0  0  0  0  0  0  0  0  0  0
   11.6512   13.5642   22.2391 N   0  0  0  0  0  0  0  0  0  0  0  0
   12.2740   14.7996   21.7465 C   0  0  0  0  0  0  0  0  0  0  0  0
   12.3981   14.8549   20.1998 C   0  0  2  0  0  0  0  0  0  0  0  0
   13.2699   16.0228   19.6877 C   0  0  0  0  0  0  0  0  0  0  0  0
   12.5494   17.3430   19.5938 C   0  0  0  0  0  0  0  0  0  0  0  0
   13.2646   18.5430   19.4802 C   0  0  0  0  0  0  0  0  0  0  0  0
   12.5941   19.7667   19.4794 C   0  0  0  0  0  0  0  0  0  0  0  0
   11.2072   19.7953   19.5883 C   0  0  0  0  0  0  0  0  0  0  0  0
   10.4898   18.6020   19.6399 C   0  0  0  0  0  0  0  0  0  0  0  0
   11.1516   17.3689   19.6130 C   0  0  0  0  0  0  0  0  0  0  0  0
   10.3426   16.1026   19.6936 C   0  0  0  0  0  0  0  0  0  0  0  0
   11.0950   14.8644   19.5443 N   0  0  0  0  0  0  0  0  0  0  0  0
    8.9660   12.0581   24.5676 C   0  0  0  0  0  0  0  0  0  0  0  0
    8.6886   10.7136   24.3551 C   0  0  0  0  0  0  0  0  0  0  0  0
    7.7991    9.7088   24.9832 C   0  0  0  0  0  0  0  0  0  0  0  0
    6.5684   10.1333   25.7525 C   0  0  0  0  0  0  0  0  0  0  0  0
    6.8663   10.7961   27.0782 C   0  0  0  0  0  0  0  0  0  0  0  0
    6.4582   12.2497   27.0783 C   0  0  0  0  0  0  0  0  0  0  0  0
    6.9690   13.0539   25.8848 C   0  0  0  0  0  0  0  0  0  0  0  0
    8.4695   13.0007   25.6277 C   0  0  0  0  0  0  0  0  0  0  0  0
  1  2  1  0
  2  3  1  0
  3  4  2  0
  4  5  1  0
  5  6  1  0
  6  7  2  0
  5  8  1  6
  8  9  1  0
 10  9  1  1
 10 11  1  0
 11 12  1  0
 12 13  2  0
 13 14  1  0
 14 15  2  0
 15 16  1  0
 16 17  2  0
 17 18  1  0
 18 19  1  0
  4 20  1  0
 20 21  2  0
 21 22  1  0
 22 23  1  0
 23 24  1  0
 24 25  1  0
 25 26  1  0
 26 27  1  0
 21  2  1  0
 19 10  1  0
 27 20  1  0
 17 12  1  0
M  END
>  <ref_pdb>  (87) 
A2293a

>  <subsites>  (87) 
1 - Active Site

>  <HIPPO Compound ID>  (87) 
209253

>  <energy_score>  (87) 
-153.633803

>  <fragmenstein_mode>  (87) 
expansion

>  <scratch_subdir>  (87) 
/opt/xchem-fragalysis-2/maxwin/BulkDock/SCRATCH/513027/C205096-P127

>  <smiles>  (87) 
Cn1nc([C@H](N=O)NC[C@@H]2Cc3ccccc3CN2)c2c1CCCCCC2

>  <alias>  (87) 
None

>  <ref_mols>  (87) 
A3189a,A2293a

>  <inspiration_score>  (87) 
None

>  <tags>  (87) 
openbind_a71ev2a_c1_fragmenstein,BulkDock Fragalysis export,fragmenstein_placed,openbind_a71ev2a_c1_scaffolds

>  <fragmenstein_outcome>  (87) 
acceptable

>  <fragmenstein_error>  (87) 


>  <distance_score>  (87) 
0.928438

>  <inchikey>  (87) 
XULPWVWELPOSEM-UHFFFAOYSA-N

>  <name>  (87) 
P45445

>  <HIPPO Pose ID>  (87) 
45445

>  <Energy>  (87) 
124.147045

>  <exports>  (87) 
['/opt/xchem-fragalysis-2/maxwin/BulkDock/OUTPUTS/openbind_a71ev2a_c1_fragmenstein_165VU4J.sdf', '/opt/xchem-fragalysis-2/maxwin/BulkDock/OUTPUTS/openbind_a71ev2a_c1_fragmenstein_1B07P1I.sdf', '/opt/xchem-fragalysis-2/maxwin/BulkDock/OUTPUTS/openbind_a71ev2a_c1_fragmenstein_1B07Y79.sdf', '/opt/xchem-fragalysis-2/maxwin/openbind-hippo/a71ev2a/openbind_a71ev2a_c1_scaffold_products.sdf', '/opt/xchem-fragalysis-2/maxwin/openbind-hippo/a71ev2a/cycle_01/bulkdock/openbind_a71ev2a_c1_scaffold_products.sdf', '/opt/xchem-fragalysis-2/maxwin/openbind-hippo/a71ev2a/cycle_01/bulkdock/openbind_a71ev2a_c1_scaffolds.sdf']

>  <fragmenstein_runtime>  (87) 
6.749428

$$$$
P45448
     RDKit          3D

 25 28  0  0  0  0  0  0  0  0999 V2000
    9.4947    8.7858   23.1375 C   0  0  0  0  0  0  0  0  0  0  0  0
    9.4021   10.1879   23.4583 N   0  0  0  0  0  0  0  0  0  0  0  0
   10.1951   11.0493   22.8001 N   0  0  0  0  0  0  0  0  0  0  0  0
   10.0224   12.2181   23.4429 C   0  0  0  0  0  0  0  0  0  0  0  0
   10.8161   13.4134   23.1090 C   0  0  0  0  0  0  0  0  0  0  0  0
   10.8352   14.3235   23.8314 O   0  0  0  0  0  0  0  0  0  0  0  0
   11.5205   13.1960   21.7690 N   0  0  0  0  0  0  0  0  0  0  0  0
   12.4737   14.0112   21.0740 C   0  0  0  0  0  0  0  0  0  0  0  0
   11.9148   15.3575   20.6411 C   0  0  1  0  0  0  0  0  0  0  0  0
   12.9682   16.1624   19.8576 C   0  0  0  0  0  0  0  0  0  0  0  0
   12.4167   17.5410   19.5962 C   0  0  0  0  0  0  0  0  0  0  0  0
   13.2748   18.6317   19.4209 C   0  0  0  0  0  0  0  0  0  0  0  0
   12.7555   19.9230   19.3816 C   0  0  0  0  0  0  0  0  0  0  0  0
   11.3845   20.1223   19.5165 C   0  0  0  0  0  0  0  0  0  0  0  0
   10.5233   19.0331   19.6241 C   0  0  0  0  0  0  0  0  0  0  0  0
   11.0234   17.7311   19.6265 C   0  0  0  0  0  0  0  0  0  0  0  0
   10.0586   16.5739   19.7719 C   0  0  0  0  0  0  0  0  0  0  0  0
   10.6869   15.2508   19.8224 N   0  0  0  0  0  0  0  0  0  0  0  0
    9.0324   12.1051   24.4548 C   0  0  0  0  0  0  0  0  0  0  0  0
    8.4476   12.9799   25.3891 C   0  0  0  0  0  0  0  0  0  0  0  0
    7.4495   12.5056   26.2444 C   0  0  0  0  0  0  0  0  0  0  0  0
    7.0363   11.1795   26.1816 C   0  0  0  0  0  0  0  0  0  0  0  0
    7.6204   10.3027   25.2676 C   0  0  0  0  0  0  0  0  0  0  0  0
    7.2036    9.0098   25.1943 O   0  0  0  0  0  0  0  0  0  0  0  0
    8.6202   10.7768   24.4170 C   0  0  0  0  0  0  0  0  0  0  0  0
  1  2  1  0
  2  3  1  0
  3  4  2  0
  4  5  1  0
  5  6  2  0
  5  7  1  0
  7  8  1  0
  9  8  1  6
  9 10  1  0
 10 11  1  0
 11 12  2  0
 12 13  1  0
 13 14  2  0
 14 15  1  0
 15 16  2  0
 16 17  1  0
 17 18  1  0
  4 19  1  0
 19 20  2  0
 20 21  1  0
 21 22  2  0
 22 23  1  0
 23 24  1  0
 23 25  2  0
 25  2  1  0
 18  9  1  0
 25 19  1  0
 16 11  1  0
M  END
>  <ref_pdb>  (88) 
A2293a

>  <subsites>  (88) 
1 - Active Site

>  <HIPPO Compound ID>  (88) 
205099

>  <energy_score>  (88) 
-18.370019

>  <fragmenstein_mode>  (88) 
expansion

>  <scratch_subdir>  (88) 
/opt/xchem-fragalysis-2/maxwin/BulkDock/SCRATCH/513027/C205099-P127

>  <smiles>  (88) 
Cn1nc(C(=O)NC[C@H]2Cc3ccccc3CN2)c2cccc(O)c21

>  <alias>  (88) 
None

>  <ref_mols>  (88) 
A3201a,A2293a

>  <inspiration_score>  (88) 
None

>  <tags>  (88) 
openbind_a71ev2a_c1_fragmenstein,BulkDock Fragalysis export,fragmenstein_placed,openbind_a71ev2a_c1_scaffolds

>  <fragmenstein_outcome>  (88) 
acceptable

>  <fragmenstein_error>  (88) 


>  <distance_score>  (88) 
0.916948

>  <inchikey>  (88) 
KJVZFMFVRBZFOP-UHFFFAOYSA-N

>  <name>  (88) 
P45448

>  <HIPPO Pose ID>  (88) 
45448

>  <Energy>  (88) 
95.696416

>  <exports>  (88) 
['/opt/xchem-fragalysis-2/maxwin/BulkDock/OUTPUTS/openbind_a71ev2a_c1_fragmenstein_165VU4J.sdf', '/opt/xchem-fragalysis-2/maxwin/BulkDock/OUTPUTS/openbind_a71ev2a_c1_fragmenstein_1B07P1I.sdf', '/opt/xchem-fragalysis-2/maxwin/BulkDock/OUTPUTS/openbind_a71ev2a_c1_fragmenstein_1B07Y79.sdf', '/opt/xchem-fragalysis-2/maxwin/openbind-hippo/a71ev2a/openbind_a71ev2a_c1_scaffold_products.sdf', '/opt/xchem-fragalysis-2/maxwin/openbind-hippo/a71ev2a/cycle_01/bulkdock/openbind_a71ev2a_c1_scaffold_products.sdf', '/opt/xchem-fragalysis-2/maxwin/openbind-hippo/a71ev2a/cycle_01/bulkdock/openbind_a71ev2a_c1_scaffolds.sdf']

>  <fragmenstein_runtime>  (88) 
3.465519

$$$$
P46636
     RDKit          3D

 10 10  0  0  0  0  0  0  0  0999 V2000
    9.2620   11.1549   24.3097 C   0  0  0  0  0  0  0  0  0  0  0  0
    8.7281   12.4879   24.8123 C   0  0  0  0  0  0  0  0  0  0  0  0
    8.3443   13.5138   23.7159 C   0  0  1  0  0  0  0  0  0  0  0  0
    7.7045   14.7157   24.4252 C   0  0  0  0  0  0  0  0  0  0  0  0
    9.4265   13.8125   22.7580 N   0  0  0  0  0  0  0  0  0  0  0  0
   10.7320   14.1521   23.3379 C   0  0  0  0  0  0  0  0  0  0  0  0
   11.7877   14.3816   22.2484 C   0  0  0  0  0  0  0  0  0  0  0  0
   11.4094   15.4609   21.4006 O   0  0  0  0  0  0  0  0  0  0  0  0
   10.1990   15.1103   20.7176 C   0  0  0  0  0  0  0  0  0  0  0  0
    9.0587   14.7928   21.7072 C   0  0  0  0  0  0  0  0  0  0  0  0
  1  2  1  0
  2  3  1  0
  3  4  1  1
  3  5  1  0
  5  6  1  0
  6  7  1  0
  7  8  1  0
  8  9  1  0
  9 10  1  0
 10  5  1  0
M  END
>  <ref_pdb>  (89) 
A2513a

>  <subsites>  (89) 
1 - Active Site

>  <HIPPO Compound ID>  (89) 
206766

>  <energy_score>  (89) 
-21.765503

>  <fragmenstein_mode>  (89) 
expansion

>  <scratch_subdir>  (89) 
/opt/xchem-fragalysis-2/maxwin/BulkDock/SCRATCH/513027/C206766-P134

>  <smiles>  (89) 
CC[C@@H](C)N1CCOCC1

>  <alias>  (89) 
None

>  <ref_mols>  (89) 
A2513a,A3194a

>  <inspiration_score>  (89) 
None

>  <tags>  (89) 
openbind_a71ev2a_c1_fragmenstein,BulkDock Fragalysis export,fragmenstein_placed,openbind_a71ev2a_c1_scaffolds

>  <fragmenstein_outcome>  (89) 
acceptable

>  <fragmenstein_error>  (89) 


>  <distance_score>  (89) 
0.973155

>  <inchikey>  (89) 
FDHGUCPWMSEFHX-UHFFFAOYSA-N

>  <name>  (89) 
P46636

>  <HIPPO Pose ID>  (89) 
46636

>  <Energy>  (89) 
63.482312

>  <exports>  (89) 
['/opt/xchem-fragalysis-2/maxwin/BulkDock/OUTPUTS/openbind_a71ev2a_c1_fragmenstein_165VU4J.sdf', '/opt/xchem-fragalysis-2/maxwin/BulkDock/OUTPUTS/openbind_a71ev2a_c1_fragmenstein_1B07P1I.sdf', '/opt/xchem-fragalysis-2/maxwin/BulkDock/OUTPUTS/openbind_a71ev2a_c1_fragmenstein_1B07Y79.sdf', '/opt/xchem-fragalysis-2/maxwin/openbind-hippo/a71ev2a/openbind_a71ev2a_c1_scaffold_products.sdf', '/opt/xchem-fragalysis-2/maxwin/openbind-hippo/a71ev2a/cycle_01/bulkdock/openbind_a71ev2a_c1_scaffold_products.sdf', '/opt/xchem-fragalysis-2/maxwin/openbind-hippo/a71ev2a/cycle_01/bulkdock/openbind_a71ev2a_c1_scaffolds.sdf']

>  <fragmenstein_runtime>  (89) 
2.161833

$$$$
P48155
     RDKit          3D

 21 23  0  0  0  0  0  0  0  0999 V2000
    9.2024    9.0785   23.1588 C   0  0  0  0  0  0  0  0  0  0  0  0
    8.9180   10.3873   23.7017 N   0  0  0  0  0  0  0  0  0  0  0  0
    9.7010   11.4149   23.3356 N   0  0  0  0  0  0  0  0  0  0  0  0
    9.2411   12.4652   24.0431 C   0  0  0  0  0  0  0  0  0  0  0  0
    9.9469   13.7642   24.0072 C   0  0  0  0  0  0  0  0  0  0  0  0
    9.6665   14.6310   24.7346 O   0  0  0  0  0  0  0  0  0  0  0  0
   11.0527   13.6741   22.9446 N   0  0  0  0  0  0  0  0  0  0  0  0
   11.9886   14.6635   22.4840 C   0  0  0  0  0  0  0  0  0  0  0  0
   12.0590   14.7836   20.9653 C   0  0  0  0  0  0  0  0  0  0  0  0
   10.9218   15.4206   20.3451 N   0  0  0  0  0  0  0  0  0  0  0  0
   10.8092   15.7936   19.0424 C   0  0  0  0  0  0  0  0  0  0  0  0
    9.8610   16.6977   18.9355 N   0  0  0  0  0  0  0  0  0  0  0  0
    9.3800   16.7960   20.2038 C   0  0  0  0  0  0  0  0  0  0  0  0
    9.9414   15.9643   21.0801 N   0  0  0  0  0  0  0  0  0  0  0  0
    8.1081   12.1023   24.8220 C   0  0  0  0  0  0  0  0  0  0  0  0
    7.2361   12.7678   25.7053 C   0  0  0  0  0  0  0  0  0  0  0  0
    6.2634   12.0231   26.3685 C   0  0  0  0  0  0  0  0  0  0  0  0
    5.4505   12.6320   27.2427 F   0  0  0  0  0  0  0  0  0  0  0  0
    6.1404   10.6539   26.1767 C   0  0  0  0  0  0  0  0  0  0  0  0
    6.9756    9.9843   25.2803 C   0  0  0  0  0  0  0  0  0  0  0  0
    7.9517   10.7322   24.6134 C   0  0  0  0  0  0  0  0  0  0  0  0
  1  2  1  0
  2  3  1  0
  3  4  2  0
  4  5  1  0
  5  6  2  0
  5  7  1  0
  7  8  1  0
  8  9  1  0
  9 10  1  0
 10 11  1  0
 11 12  2  0
 12 13  1  0
 13 14  2  0
  4 15  1  0
 15 16  2  0
 16 17  1  0
 17 18  1  0
 17 19  2  0
 19 20  1  0
 20 21  2  0
 21  2  1  0
 14 10  1  0
 21 15  1  0
M  END
>  <ref_pdb>  (90) 
A3176a

>  <subsites>  (90) 
1 - Active Site

>  <HIPPO Compound ID>  (90) 
205775

>  <energy_score>  (90) 
-5.005565

>  <fragmenstein_mode>  (90) 
expansion

>  <scratch_subdir>  (90) 
/opt/xchem-fragalysis-2/maxwin/BulkDock/SCRATCH/513027/C205775-P141

>  <smiles>  (90) 
Cn1nc(C(=O)NCCn2cncn2)c2cc(F)ccc21

>  <alias>  (90) 
None

>  <ref_mols>  (90) 
A3417a,A3176a

>  <inspiration_score>  (90) 
None

>  <tags>  (90) 
openbind_a71ev2a_c1_fragmenstein,BulkDock Fragalysis export,fragmenstein_placed,openbind_a71ev2a_c1_scaffolds

>  <fragmenstein_outcome>  (90) 
acceptable

>  <fragmenstein_error>  (90) 


>  <distance_score>  (90) 
0.729664

>  <inchikey>  (90) 
GRQIJMFMPOTAPA-UHFFFAOYSA-N

>  <name>  (90) 
P48155

>  <HIPPO Pose ID>  (90) 
48155

>  <Energy>  (90) 
68.288021

>  <exports>  (90) 
['/opt/xchem-fragalysis-2/maxwin/BulkDock/OUTPUTS/openbind_a71ev2a_c1_fragmenstein_165VU4J.sdf', '/opt/xchem-fragalysis-2/maxwin/BulkDock/OUTPUTS/openbind_a71ev2a_c1_fragmenstein_1B07P1I.sdf', '/opt/xchem-fragalysis-2/maxwin/BulkDock/OUTPUTS/openbind_a71ev2a_c1_fragmenstein_1B07Y79.sdf', '/opt/xchem-fragalysis-2/maxwin/openbind-hippo/a71ev2a/openbind_a71ev2a_c1_scaffold_products.sdf', '/opt/xchem-fragalysis-2/maxwin/openbind-hippo/a71ev2a/cycle_01/bulkdock/openbind_a71ev2a_c1_scaffold_products.sdf', '/opt/xchem-fragalysis-2/maxwin/openbind-hippo/a71ev2a/cycle_01/bulkdock/openbind_a71ev2a_c1_scaffolds.sdf']

>  <fragmenstein_runtime>  (90) 
1.953354

$$$$
P48171
     RDKit          3D

 21 23  0  0  0  0  0  0  0  0999 V2000
    5.3291   12.7387   27.3690 C   0  0  0  0  0  0  0  0  0  0  0  0
    6.2377   12.0363   26.4047 C   0  0  0  0  0  0  0  0  0  0  0  0
    6.1335   10.6572   26.2085 C   0  0  0  0  0  0  0  0  0  0  0  0
    6.9660    9.9835   25.3090 C   0  0  0  0  0  0  0  0  0  0  0  0
    7.9399   10.7225   24.6336 C   0  0  0  0  0  0  0  0  0  0  0  0
    8.1000   12.0895   24.8384 C   0  0  0  0  0  0  0  0  0  0  0  0
    7.2342   12.7573   25.7279 C   0  0  0  0  0  0  0  0  0  0  0  0
    9.2201   12.4526   24.0422 C   0  0  0  0  0  0  0  0  0  0  0  0
    9.9119   13.7570   23.9852 C   0  0  0  0  0  0  0  0  0  0  0  0
    9.6468   14.6226   24.7193 O   0  0  0  0  0  0  0  0  0  0  0  0
   10.9513   13.6918   22.8568 N   0  0  0  0  0  0  0  0  0  0  0  0
   11.9499   14.6410   22.4520 C   0  0  0  0  0  0  0  0  0  0  0  0
   12.0676   14.7983   20.9410 C   0  0  0  0  0  0  0  0  0  0  0  0
   10.9551   15.4607   20.3029 N   0  0  0  0  0  0  0  0  0  0  0  0
   10.8357   15.7640   18.9836 C   0  0  0  0  0  0  0  0  0  0  0  0
    9.9051   16.6803   18.8349 N   0  0  0  0  0  0  0  0  0  0  0  0
    9.4536   16.8761   20.1021 C   0  0  0  0  0  0  0  0  0  0  0  0
   10.0169   16.0922   21.0203 N   0  0  0  0  0  0  0  0  0  0  0  0
    9.6714   11.4022   23.3276 N   0  0  0  0  0  0  0  0  0  0  0  0
    8.8998   10.3743   23.7184 N   0  0  0  0  0  0  0  0  0  0  0  0
    9.1841    9.0631   23.1848 C   0  0  0  0  0  0  0  0  0  0  0  0
  1  2  1  0
  2  3  2  0
  3  4  1  0
  4  5  2  0
  5  6  1  0
  6  7  2  0
  6  8  1  0
  8  9  1  0
  9 10  2  0
  9 11  1  0
 11 12  1  0
 12 13  1  0
 13 14  1  0
 14 15  1  0
 15 16  2  0
 16 17  1  0
 17 18  2  0
  8 19  2  0
 19 20  1  0
 20 21  1  0
  7  2  1  0
 18 14  1  0
 20  5  1  0
M  END
>  <ref_pdb>  (91) 
A3176a

>  <subsites>  (91) 
1 - Active Site

>  <HIPPO Compound ID>  (91) 
209218

>  <energy_score>  (91) 
-3.924943

>  <fragmenstein_mode>  (91) 
expansion

>  <scratch_subdir>  (91) 
/opt/xchem-fragalysis-2/maxwin/BulkDock/SCRATCH/513027/C209218-P141

>  <smiles>  (91) 
Cc1ccc2c(c1)c(C(=O)NCCn1cncn1)nn2C

>  <alias>  (91) 
None

>  <ref_mols>  (91) 
A3986a,A3176a

>  <inspiration_score>  (91) 
None

>  <tags>  (91) 
openbind_a71ev2a_c1_fragmenstein,BulkDock Fragalysis export,fragmenstein_placed,openbind_a71ev2a_c1_scaffolds

>  <fragmenstein_outcome>  (91) 
acceptable

>  <fragmenstein_error>  (91) 


>  <distance_score>  (91) 
0.828516

>  <inchikey>  (91) 
RCJWHSZLGRRVMM-UHFFFAOYSA-N

>  <name>  (91) 
P48171

>  <HIPPO Pose ID>  (91) 
48171

>  <Energy>  (91) 
76.471608

>  <exports>  (91) 
['/opt/xchem-fragalysis-2/maxwin/BulkDock/OUTPUTS/openbind_a71ev2a_c1_fragmenstein_165VU4J.sdf', '/opt/xchem-fragalysis-2/maxwin/BulkDock/OUTPUTS/openbind_a71ev2a_c1_fragmenstein_1B07P1I.sdf', '/opt/xchem-fragalysis-2/maxwin/BulkDock/OUTPUTS/openbind_a71ev2a_c1_fragmenstein_1B07Y79.sdf', '/opt/xchem-fragalysis-2/maxwin/openbind-hippo/a71ev2a/openbind_a71ev2a_c1_scaffold_products.sdf', '/opt/xchem-fragalysis-2/maxwin/openbind-hippo/a71ev2a/cycle_01/bulkdock/openbind_a71ev2a_c1_scaffold_products.sdf', '/opt/xchem-fragalysis-2/maxwin/openbind-hippo/a71ev2a/cycle_01/bulkdock/openbind_a71ev2a_c1_scaffolds.sdf']

>  <fragmenstein_runtime>  (91) 
4.808944

$$$$
P48172
     RDKit          3D

 21 24  0  0  0  0  0  0  0  0999 V2000
    9.4051    9.2030   23.1186 C   0  0  0  0  0  0  0  0  0  0  0  0
    8.9851   10.4680   23.6754 N   0  0  0  0  0  0  0  0  0  0  0  0
    9.6685   11.5908   23.3599 N   0  0  0  0  0  0  0  0  0  0  0  0
    9.0290   12.5576   24.0208 C   0  0  0  0  0  0  0  0  0  0  0  0
    9.4601   13.9746   24.0532 C   0  0  0  0  0  0  0  0  0  0  0  0
   10.2342   14.6360   22.9392 C   0  0  1  0  0  0  0  0  0  0  0  0
   11.7368   14.4493   22.8795 C   0  0  0  0  0  0  0  0  0  0  0  0
   12.1221   15.2688   21.6406 C   0  0  0  0  0  0  0  0  0  0  0  0
   10.8520   15.3961   20.7715 C   0  0  1  0  0  0  0  0  0  0  0  0
    9.8214   14.4776   21.4800 C   0  0  0  0  0  0  0  0  0  0  0  0
   10.1723   16.7065   20.8031 N   0  0  0  0  0  0  0  0  0  0  0  0
    9.7887   17.0335   19.4418 C   0  0  0  0  0  0  0  0  0  0  0  0
    9.9748   15.8123   18.6870 N   0  0  0  0  0  0  0  0  0  0  0  0
   11.1641   15.2690   19.2774 C   0  0  2  0  0  0  0  0  0  0  0  0
   11.3945   13.9882   18.7041 N   0  0  0  0  0  0  0  0  0  0  0  0
    7.9613   12.0439   24.8073 C   0  0  0  0  0  0  0  0  0  0  0  0
    7.0224   12.5906   25.7050 C   0  0  0  0  0  0  0  0  0  0  0  0
    6.1256   11.7404   26.3563 C   0  0  0  0  0  0  0  0  0  0  0  0
    6.1557   10.3714   26.1131 C   0  0  0  0  0  0  0  0  0  0  0  0
    7.0674    9.8197   25.2075 C   0  0  0  0  0  0  0  0  0  0  0  0
    7.9691   10.6777   24.5749 C   0  0  0  0  0  0  0  0  0  0  0  0
  1  2  1  0
  2  3  1  0
  3  4  2  0
  4  5  1  0
  6  5  1  1
  6  7  1  0
  7  8  1  0
  9  8  1  1
  9 10  1  0
  9 11  1  0
 11 12  1  0
 12 13  1  0
 13 14  1  0
 14 15  1  6
  4 16  1  0
 16 17  2  0
 17 18  1  0
 18 19  2  0
 19 20  1  0
 20 21  2  0
 21  2  1  0
 10  6  1  0
 21 16  1  0
 14  9  1  0
M  END
>  <ref_pdb>  (92) 
A3176a

>  <subsites>  (92) 
1 - Active Site

>  <HIPPO Compound ID>  (92) 
209837

>  <energy_score>  (92) 
-29.098369

>  <fragmenstein_mode>  (92) 
expansion

>  <scratch_subdir>  (92) 
/opt/xchem-fragalysis-2/maxwin/BulkDock/SCRATCH/513027/C209287-P141

>  <smiles>  (92) 
Cn1nc(C[C@H]2CC[C@@]3(C2)NCN[C@@H]3N)c2ccccc21

>  <alias>  (92) 
None

>  <ref_mols>  (92) 
A3989a,A3176a

>  <inspiration_score>  (92) 
None

>  <tags>  (92) 
openbind_a71ev2a_c1_fragmenstein,BulkDock Fragalysis export,fragmenstein_placed,openbind_a71ev2a_c1_scaffolds

>  <fragmenstein_outcome>  (92) 
acceptable

>  <fragmenstein_error>  (92) 


>  <distance_score>  (92) 
0.860584

>  <inchikey>  (92) 
XIBNVKKKKOBXOR-UHFFFAOYSA-N

>  <name>  (92) 
P48172

>  <HIPPO Pose ID>  (92) 
48172

>  <Energy>  (92) 
-0.279451

>  <exports>  (92) 
['/opt/xchem-fragalysis-2/maxwin/BulkDock/OUTPUTS/openbind_a71ev2a_c1_fragmenstein_165VU4J.sdf', '/opt/xchem-fragalysis-2/maxwin/BulkDock/OUTPUTS/openbind_a71ev2a_c1_fragmenstein_1B07P1I.sdf', '/opt/xchem-fragalysis-2/maxwin/BulkDock/OUTPUTS/openbind_a71ev2a_c1_fragmenstein_1B07Y79.sdf', '/opt/xchem-fragalysis-2/maxwin/openbind-hippo/a71ev2a/openbind_a71ev2a_c1_scaffold_products.sdf', '/opt/xchem-fragalysis-2/maxwin/openbind-hippo/a71ev2a/cycle_01/bulkdock/openbind_a71ev2a_c1_scaffold_products.sdf', '/opt/xchem-fragalysis-2/maxwin/openbind-hippo/a71ev2a/cycle_01/bulkdock/openbind_a71ev2a_c1_scaffolds.sdf']

>  <fragmenstein_runtime>  (92) 
3.21769

$$$$
P48293
     RDKit          3D

 22 24  0  0  0  0  0  0  0  0999 V2000
    6.6341   14.8575   24.9829 C   0  0  0  0  0  0  0  0  0  0  0  0
    7.2526   14.0968   26.0245 O   0  0  0  0  0  0  0  0  0  0  0  0
    7.1914   12.7528   25.7199 C   0  0  0  0  0  0  0  0  0  0  0  0
    6.2320   11.9964   26.4029 C   0  0  0  0  0  0  0  0  0  0  0  0
    6.1362   10.6268   26.1889 C   0  0  0  0  0  0  0  0  0  0  0  0
    6.9804    9.9852   25.2805 C   0  0  0  0  0  0  0  0  0  0  0  0
    7.9518   10.7480   24.6217 C   0  0  0  0  0  0  0  0  0  0  0  0
    8.1010   12.1189   24.8441 C   0  0  0  0  0  0  0  0  0  0  0  0
    9.2542   12.4832   24.0885 C   0  0  0  0  0  0  0  0  0  0  0  0
   10.0049   13.7628   24.0764 C   0  0  0  0  0  0  0  0  0  0  0  0
    9.8277   14.5869   24.8801 O   0  0  0  0  0  0  0  0  0  0  0  0
   11.0323   13.6873   22.9376 N   0  0  0  0  0  0  0  0  0  0  0  0
   11.9975   14.6505   22.4862 C   0  0  0  0  0  0  0  0  0  0  0  0
   12.0997   14.7647   20.9707 C   0  0  0  0  0  0  0  0  0  0  0  0
   10.9858   15.4165   20.3258 N   0  0  0  0  0  0  0  0  0  0  0  0
   10.8606   15.6936   19.0009 C   0  0  0  0  0  0  0  0  0  0  0  0
    9.9325   16.6101   18.8383 N   0  0  0  0  0  0  0  0  0  0  0  0
    9.4930   16.8365   20.1033 C   0  0  0  0  0  0  0  0  0  0  0  0
   10.0604   16.0744   21.0363 N   0  0  0  0  0  0  0  0  0  0  0  0
    9.7031   11.4418   23.3562 N   0  0  0  0  0  0  0  0  0  0  0  0
    8.9216   10.4111   23.7131 N   0  0  0  0  0  0  0  0  0  0  0  0
    9.2135    9.1042   23.1686 C   0  0  0  0  0  0  0  0  0  0  0  0
  1  2  1  0
  2  3  1  0
  3  4  2  0
  4  5  1  0
  5  6  2  0
  6  7  1  0
  7  8  2  0
  8  9  1  0
  9 10  1  0
 10 11  2  0
 10 12  1  0
 12 13  1  0
 13 14  1  0
 14 15  1  0
 15 16  1  0
 16 17  2  0
 17 18  1  0
 18 19  2  0
  9 20  2  0
 20 21  1  0
 21 22  1  0
  8  3  1  0
 19 15  1  0
 21  7  1  0
M  END
>  <ref_pdb>  (93) 
A3176a

>  <subsites>  (93) 
1 - Active Site

>  <HIPPO Compound ID>  (93) 
209478

>  <energy_score>  (93) 
-11.301343

>  <fragmenstein_mode>  (93) 
expansion

>  <scratch_subdir>  (93) 
/opt/xchem-fragalysis-2/maxwin/BulkDock/SCRATCH/513027/C209478-P141

>  <smiles>  (93) 
COc1cccc2c1c(C(=O)NCCn1cncn1)nn2C

>  <alias>  (93) 
None

>  <ref_mols>  (93) 
A3176a,A5131a

>  <inspiration_score>  (93) 
None

>  <tags>  (93) 
openbind_a71ev2a_c1_fragmenstein,BulkDock Fragalysis export,fragmenstein_placed,openbind_a71ev2a_c1_scaffolds

>  <fragmenstein_outcome>  (93) 
acceptable

>  <fragmenstein_error>  (93) 


>  <distance_score>  (93) 
0.902303

>  <inchikey>  (93) 
DMXCSEIOVCLCAJ-UHFFFAOYSA-N

>  <name>  (93) 
P48293

>  <HIPPO Pose ID>  (93) 
48293

>  <Energy>  (93) 
83.850521

>  <exports>  (93) 
['/opt/xchem-fragalysis-2/maxwin/BulkDock/OUTPUTS/openbind_a71ev2a_c1_fragmenstein_165VU4J.sdf', '/opt/xchem-fragalysis-2/maxwin/BulkDock/OUTPUTS/openbind_a71ev2a_c1_fragmenstein_1B07P1I.sdf', '/opt/xchem-fragalysis-2/maxwin/BulkDock/OUTPUTS/openbind_a71ev2a_c1_fragmenstein_1B07Y79.sdf', '/opt/xchem-fragalysis-2/maxwin/openbind-hippo/a71ev2a/openbind_a71ev2a_c1_scaffold_products.sdf', '/opt/xchem-fragalysis-2/maxwin/openbind-hippo/a71ev2a/cycle_01/bulkdock/openbind_a71ev2a_c1_scaffold_products.sdf', '/opt/xchem-fragalysis-2/maxwin/openbind-hippo/a71ev2a/cycle_01/bulkdock/openbind_a71ev2a_c1_scaffolds.sdf']

>  <fragmenstein_runtime>  (93) 
5.156714

$$$$
P51261
     RDKit          3D

 20 22  0  0  0  0  0  0  0  0999 V2000
   11.6529   14.9457   18.2349 C   0  0  0  0  0  0  0  0  0  0  0  0
   10.9652   15.4831   19.3966 C   0  0  0  0  0  0  0  0  0  0  0  0
    9.8369   16.2181   19.1960 O   0  0  0  0  0  0  0  0  0  0  0  0
    9.5062   16.6323   20.4473 C   0  0  0  0  0  0  0  0  0  0  0  0
   10.2903   16.1858   21.3964 N   0  0  0  0  0  0  0  0  0  0  0  0
   11.2586   15.4818   20.7345 C   0  0  0  0  0  0  0  0  0  0  0  0
   12.4408   14.8952   21.4189 C   0  0  0  0  0  0  0  0  0  0  0  0
   12.1258   14.4013   22.8259 C   0  0  0  0  0  0  0  0  0  0  0  0
   11.0960   13.3945   22.7411 N   0  0  0  0  0  0  0  0  0  0  0  0
   10.3002   13.1971   23.9261 C   0  0  0  0  0  0  0  0  0  0  0  0
    9.2049   12.1878   23.5922 C   0  0  1  0  0  0  0  0  0  0  0  0
    9.8193   10.8504   23.1592 C   0  0  0  0  0  0  0  0  0  0  0  0
    8.8842    9.7390   23.5841 C   0  0  1  0  0  0  0  0  0  0  0  0
    9.6089    8.4212   23.6391 C   0  0  0  0  0  0  0  0  0  0  0  0
    8.1907   10.3692   24.7528 C   0  0  0  0  0  0  0  0  0  0  0  0
    7.2905    9.7907   25.6223 C   0  0  0  0  0  0  0  0  0  0  0  0
    6.5609   10.5883   26.5023 C   0  0  0  0  0  0  0  0  0  0  0  0
    6.7282   11.9749   26.4950 C   0  0  0  0  0  0  0  0  0  0  0  0
    7.6183   12.5707   25.6019 C   0  0  0  0  0  0  0  0  0  0  0  0
    8.3420   11.7587   24.7399 C   0  0  0  0  0  0  0  0  0  0  0  0
  1  2  1  0
  2  3  1  0
  3  4  1  0
  4  5  2  0
  5  6  1  0
  6  7  1  0
  7  8  1  0
  8  9  1  0
  9 10  1  0
 11 10  1  1
 11 12  1  0
 12 13  1  0
 13 14  1  1
 13 15  1  0
 15 16  2  0
 16 17  1  0
 17 18  2  0
 18 19  1  0
 19 20  2  0
  6  2  2  0
 20 11  1  0
 20 15  1  0
M  END
>  <ref_pdb>  (94) 
A3264a

>  <subsites>  (94) 
1 - Active Site

>  <HIPPO Compound ID>  (94) 
250249

>  <energy_score>  (94) 
-24.521005

>  <fragmenstein_mode>  (94) 
expansion

>  <scratch_subdir>  (94) 
/opt/xchem-fragalysis-2/maxwin/BulkDock/SCRATCH/513028/C250249-P163

>  <smiles>  (94) 
Cc1ocnc1CCNC[C@H]1C[C@@H](C)c2ccccc21

>  <alias>  (94) 
None

>  <ref_mols>  (94) 
A3264a,A3867a

>  <inspiration_score>  (94) 
None

>  <tags>  (94) 
openbind_a71ev2a_c1_fragmenstein,BulkDock Fragalysis export,fragmenstein_placed,openbind_a71ev2a_c1_scaffolds

>  <fragmenstein_outcome>  (94) 
acceptable

>  <fragmenstein_error>  (94) 


>  <distance_score>  (94) 
0.780634

>  <inchikey>  (94) 
HSQWIPMJMKOJQO-UHFFFAOYSA-N

>  <name>  (94) 
P51261

>  <HIPPO Pose ID>  (94) 
51261

>  <Energy>  (94) 
76.529518

>  <exports>  (94) 
['/opt/xchem-fragalysis-2/maxwin/BulkDock/OUTPUTS/openbind_a71ev2a_c1_fragmenstein_165VU4J.sdf', '/opt/xchem-fragalysis-2/maxwin/BulkDock/OUTPUTS/openbind_a71ev2a_c1_fragmenstein_1B07P1I.sdf', '/opt/xchem-fragalysis-2/maxwin/BulkDock/OUTPUTS/openbind_a71ev2a_c1_fragmenstein_1B07Y79.sdf', '/opt/xchem-fragalysis-2/maxwin/openbind-hippo/a71ev2a/openbind_a71ev2a_c1_scaffold_products.sdf', '/opt/xchem-fragalysis-2/maxwin/openbind-hippo/a71ev2a/cycle_01/bulkdock/openbind_a71ev2a_c1_scaffold_products.sdf', '/opt/xchem-fragalysis-2/maxwin/openbind-hippo/a71ev2a/cycle_01/bulkdock/openbind_a71ev2a_c1_scaffolds.sdf']

>  <fragmenstein_runtime>  (94) 
2.29721

$$$$
P52293
     RDKit          3D

 27 31  0  0  0  0  0  0  0  0999 V2000
   12.4168   13.2501   24.7375 C   0  0  0  0  0  0  0  0  0  0  0  0
   11.1293   13.5704   24.1625 N   0  0  0  0  0  0  0  0  0  0  0  0
    9.9620   13.2687   24.8487 C   0  0  0  0  0  0  0  0  0  0  0  0
    9.5078   11.8941   24.8218 C   0  0  0  0  0  0  0  0  0  0  0  0
   10.0257   10.9741   23.9936 N   0  0  0  0  0  0  0  0  0  0  0  0
    9.2050    9.9207   24.1326 N   0  0  0  0  0  0  0  0  0  0  0  0
    9.4271    8.7622   23.3010 C   0  0  0  0  0  0  0  0  0  0  0  0
    8.2168   10.1239   25.0625 C   0  0  0  0  0  0  0  0  0  0  0  0
    7.2063    9.3218   25.5712 C   0  0  0  0  0  0  0  0  0  0  0  0
    6.2894    9.8487   26.4830 C   0  0  0  0  0  0  0  0  0  0  0  0
    6.3784   11.1719   26.8807 C   0  0  0  0  0  0  0  0  0  0  0  0
    7.4100   11.9722   26.3938 C   0  0  0  0  0  0  0  0  0  0  0  0
    8.3529   11.4272   25.4939 C   0  0  0  0  0  0  0  0  0  0  0  0
    9.0185   14.1479   25.0250 N   0  0  0  0  0  0  0  0  0  0  0  0
    8.6121   14.4527   23.7523 C   0  0  0  0  0  0  0  0  0  0  0  0
    7.4937   14.2330   23.3064 O   0  0  0  0  0  0  0  0  0  0  0  0
    9.6664   14.8256   22.9814 N   0  0  0  0  0  0  0  0  0  0  0  0
    9.7720   14.3599   21.6314 C   0  0  0  0  0  0  0  0  0  0  0  0
   10.9144   15.2421   21.1490 C   0  0  2  0  0  0  0  0  0  0  0  0
   10.1813   16.5737   20.8334 C   0  0  0  0  0  0  0  0  0  0  0  0
    9.7026   16.2834   19.1076 S   0  0  0  0  0  0  0  0  0  0  0  0
   11.2394   15.4846   18.8192 C   0  0  2  0  0  0  0  0  0  0  0  0
   11.4119   14.5858   17.7431 N   0  0  0  0  0  0  0  0  0  0  0  0
   11.6178   14.7168   19.9715 N   0  0  0  0  0  0  0  0  0  0  0  0
   13.0396   14.9673   20.1331 O   0  0  0  0  0  0  0  0  0  0  0  0
   11.8617   15.1944   22.3756 C   0  0  0  0  0  0  0  0  0  0  0  0
   10.9777   14.8735   23.5483 C   0  0  2  0  0  0  0  0  0  0  0  0
  1  2  1  0
  2  3  1  0
  3  4  1  0
  4  5  2  0
  5  6  1  0
  6  7  1  0
  6  8  1  0
  8  9  2  0
  9 10  1  0
 10 11  2  0
 11 12  1  0
 12 13  2  0
  3 14  2  0
 14 15  1  0
 15 16  2  0
 15 17  1  0
 17 18  1  0
 19 18  1  1
 19 20  1  0
 20 21  1  0
 21 22  1  0
 22 23  1  6
 22 24  1  0
 24 25  1  0
 19 26  1  0
 27 26  1  6
 27  2  1  0
 13  4  1  0
 27 17  1  0
 13  8  1  0
 24 19  1  0
M  END
>  <ref_pdb>  (95) 
A3306a

>  <subsites>  (95) 
1 - Active Site

>  <HIPPO Compound ID>  (95) 
266892

>  <energy_score>  (95) 
-11.726777

>  <fragmenstein_mode>  (95) 
expansion

>  <scratch_subdir>  (95) 
/opt/xchem-fragalysis-2/maxwin/BulkDock/SCRATCH/513029/C263496-P168

>  <smiles>  (95) 
CN1C(c2nn(C)c3ccccc23)=NC(=O)N2C[C@@]3(CS[C@H](N)N3O)C[C@H]12

>  <alias>  (95) 
None

>  <ref_mols>  (95) 
A3306a,A4509a

>  <inspiration_score>  (95) 
None

>  <tags>  (95) 
openbind_a71ev2a_c1_fragmenstein,BulkDock Fragalysis export,fragmenstein_placed,openbind_a71ev2a_c1_scaffolds

>  <fragmenstein_outcome>  (95) 
acceptable

>  <fragmenstein_error>  (95) 


>  <distance_score>  (95) 
0.991902

>  <inchikey>  (95) 
MHJINKMDGLJYJH-UHFFFAOYSA-N

>  <name>  (95) 
P52293

>  <HIPPO Pose ID>  (95) 
52293

>  <Energy>  (95) 
-50.979636

>  <exports>  (95) 
['/opt/xchem-fragalysis-2/maxwin/BulkDock/OUTPUTS/openbind_a71ev2a_c1_fragmenstein_165VU4J.sdf', '/opt/xchem-fragalysis-2/maxwin/BulkDock/OUTPUTS/openbind_a71ev2a_c1_fragmenstein_1B07P1I.sdf', '/opt/xchem-fragalysis-2/maxwin/BulkDock/OUTPUTS/openbind_a71ev2a_c1_fragmenstein_1B07Y79.sdf', '/opt/xchem-fragalysis-2/maxwin/openbind-hippo/a71ev2a/openbind_a71ev2a_c1_scaffold_products.sdf', '/opt/xchem-fragalysis-2/maxwin/openbind-hippo/a71ev2a/cycle_01/bulkdock/openbind_a71ev2a_c1_scaffold_products.sdf', '/opt/xchem-fragalysis-2/maxwin/openbind-hippo/a71ev2a/cycle_01/bulkdock/openbind_a71ev2a_c1_scaffolds.sdf']

>  <fragmenstein_runtime>  (95) 
2.951659

$$$$
P52296
     RDKit          3D

 29 32  0  0  0  0  0  0  0  0999 V2000
    9.4419    9.0512   23.3984 C   0  0  0  0  0  0  0  0  0  0  0  0
    9.0704   10.2630   24.0943 N   0  0  0  0  0  0  0  0  0  0  0  0
    9.8158   11.3675   23.9223 N   0  0  0  0  0  0  0  0  0  0  0  0
    9.1968   12.3237   24.6398 C   0  0  0  0  0  0  0  0  0  0  0  0
    9.7953   13.7082   24.8701 C   0  0  1  0  0  0  0  0  0  0  0  0
    8.8530   14.6181   25.4337 O   0  0  0  0  0  0  0  0  0  0  0  0
   10.8156   13.5843   25.8980 N   0  0  0  0  0  0  0  0  0  0  0  0
   11.9997   14.4116   25.8086 C   0  0  0  0  0  0  0  0  0  0  0  0
   13.1932   13.6569   25.2010 C   0  0  0  0  0  0  0  0  0  0  0  0
   12.8659   12.5546   24.2263 C   0  0  0  0  0  0  0  0  0  0  0  0
   12.1869   13.0277   22.9537 C   0  0  0  0  0  0  0  0  0  0  0  0
   11.5166   14.2888   23.0993 N   0  0  0  0  0  0  0  0  0  0  0  0
   12.0025   15.3507   22.2528 C   0  0  0  0  0  0  0  0  0  0  0  0
   11.2266   15.4085   20.9695 C   0  0  1  0  0  0  0  0  0  0  0  0
   10.3438   16.6559   20.8708 C   0  0  0  0  0  0  0  0  0  0  0  0
    9.9117   16.5800   19.1842 S   0  0  2  0  0  4  0  0  0  0  0  0
    8.7736   15.4510   19.3644 O   0  0  0  0  0  0  0  0  0  0  0  0
   11.3435   15.6891   18.6516 C   0  0  2  0  0  0  0  0  0  0  0  0
   11.2464   14.3713   18.1245 N   0  0  0  0  0  0  0  0  0  0  0  0
   12.1343   15.4024   19.8211 N   0  0  0  0  0  0  0  0  0  0  0  0
   10.2003   14.3417   23.5338 C   0  0  0  0  0  0  0  0  0  0  0  0
    9.3209   14.9871   22.9462 O   0  0  0  0  0  0  0  0  0  0  0  0
    8.0653   11.7969   25.2958 C   0  0  0  0  0  0  0  0  0  0  0  0
    7.1062   12.3211   26.1685 C   0  0  0  0  0  0  0  0  0  0  0  0
    6.1531   11.4671   26.7018 C   0  0  0  0  0  0  0  0  0  0  0  0
    4.9628   12.1440   27.7280 Cl  0  0  0  0  0  0  0  0  0  0  0  0
    6.1674   10.1060   26.4251 C   0  0  0  0  0  0  0  0  0  0  0  0
    7.1274    9.5723   25.5631 C   0  0  0  0  0  0  0  0  0  0  0  0
    8.0521   10.4426   24.9889 C   0  0  0  0  0  0  0  0  0  0  0  0
  1  2  1  0
  2  3  1  0
  3  4  2  0
  4  5  1  0
  5  6  1  1
  5  7  1  0
  7  8  1  0
  8  9  1  0
  9 10  1  0
 10 11  1  0
 11 12  1  0
 12 13  1  0
 14 13  1  1
 14 15  1  0
 15 16  1  0
 16 17  1  1
 16 18  1  0
 18 19  1  1
 18 20  1  0
 12 21  1  0
 21 22  2  0
  4 23  1  0
 23 24  2  0
 24 25  1  0
 25 26  1  0
 25 27  2  0
 27 28  1  0
 28 29  2  0
 29  2  1  0
 21  5  1  0
 29 23  1  0
 20 14  1  0
M  END
>  <ref_pdb>  (96) 
A3306a

>  <subsites>  (96) 
1 - Active Site

>  <HIPPO Compound ID>  (96) 
264727

>  <energy_score>  (96) 
-95.98974

>  <fragmenstein_mode>  (96) 
expansion

>  <scratch_subdir>  (96) 
/opt/xchem-fragalysis-2/maxwin/BulkDock/SCRATCH/513029/C263482-P168

>  <smiles>  (96) 
Cn1nc([C@@]2(O)NCCCCN(C[C@H]3C[S@H](O)[C@H](N)N3)C2=O)c2cc(Cl)ccc21

>  <alias>  (96) 
None

>  <ref_mols>  (96) 
A3306a,A4519b

>  <inspiration_score>  (96) 
None

>  <tags>  (96) 
openbind_a71ev2a_c1_fragmenstein,BulkDock Fragalysis export,fragmenstein_placed,openbind_a71ev2a_c1_scaffolds

>  <fragmenstein_outcome>  (96) 
acceptable

>  <fragmenstein_error>  (96) 


>  <distance_score>  (96) 
0.958542

>  <inchikey>  (96) 
FDGRSYLWCHGFJP-UHFFFAOYSA-N

>  <name>  (96) 
P52296

>  <HIPPO Pose ID>  (96) 
52296

>  <Energy>  (96) 
115.455534

>  <exports>  (96) 
['/opt/xchem-fragalysis-2/maxwin/BulkDock/OUTPUTS/openbind_a71ev2a_c1_fragmenstein_165VU4J.sdf', '/opt/xchem-fragalysis-2/maxwin/BulkDock/OUTPUTS/openbind_a71ev2a_c1_fragmenstein_1B07P1I.sdf', '/opt/xchem-fragalysis-2/maxwin/BulkDock/OUTPUTS/openbind_a71ev2a_c1_fragmenstein_1B07Y79.sdf', '/opt/xchem-fragalysis-2/maxwin/openbind-hippo/a71ev2a/openbind_a71ev2a_c1_scaffold_products.sdf', '/opt/xchem-fragalysis-2/maxwin/openbind-hippo/a71ev2a/cycle_01/bulkdock/openbind_a71ev2a_c1_scaffold_products.sdf', '/opt/xchem-fragalysis-2/maxwin/openbind-hippo/a71ev2a/cycle_01/bulkdock/openbind_a71ev2a_c1_scaffolds.sdf']

>  <fragmenstein_runtime>  (96) 
5.47471

$$$$
P52339
     RDKit          3D

 37 41  0  0  0  0  0  0  0  0999 V2000
    9.3330    8.4914   23.2228 C   0  0  0  0  0  0  0  0  0  0  0  0
    9.2554    9.7348   23.9473 N   0  0  0  0  0  0  0  0  0  0  0  0
   10.1492   10.6814   23.6563 N   0  0  0  0  0  0  0  0  0  0  0  0
    9.7878   11.7391   24.3872 C   0  0  0  0  0  0  0  0  0  0  0  0
   10.4853   13.0095   24.2684 C   0  0  0  0  0  0  0  0  0  0  0  0
    9.7886   14.0430   24.6018 N   0  0  0  0  0  0  0  0  0  0  0  0
   10.2596   15.0751   23.8787 C   0  0  0  0  0  0  0  0  0  0  0  0
   11.3656   15.5367   24.1317 O   0  0  0  0  0  0  0  0  0  0  0  0
    9.4860   15.3535   22.7592 N   0  0  0  0  0  0  0  0  0  0  0  0
    8.1434   14.7873   22.5667 C   0  0  0  0  0  0  0  0  0  0  0  0
    7.0233   15.6351   23.2108 C   0  0  2  0  0  0  0  0  0  0  0  0
    7.1810   15.8603   24.7204 C   0  0  0  0  0  0  0  0  0  0  0  0
    5.5579   15.9015   25.3650 S   0  0  1  0  0  4  0  0  0  0  0  0
    5.0694   17.3996   24.9599 O   0  0  0  0  0  0  0  0  0  0  0  0
    4.9121   14.8812   24.1016 C   0  0  1  0  0  0  0  0  0  0  0  0
    3.5579   15.1254   23.6911 N   0  0  0  0  0  0  0  0  0  0  0  0
    5.6916   15.0357   22.8919 N   0  0  0  0  0  0  0  0  0  0  0  0
   10.1029   16.0309   21.6232 C   0  0  0  0  0  0  0  0  0  0  0  0
   10.9580   15.0910   20.7855 C   0  0  0  0  0  0  0  0  0  0  0  0
   12.1304   14.4451   21.5438 C   0  0  0  0  0  0  0  0  0  0  0  0
   11.7637   13.1079   22.2094 C   0  0  0  0  0  0  0  0  0  0  0  0
   11.7507   13.0242   23.6806 N   0  0  0  0  0  0  0  0  0  0  0  0
    8.6099   11.4596   25.1441 C   0  0  0  0  0  0  0  0  0  0  0  0
    7.7585   12.1750   26.0157 C   0  0  0  0  0  0  0  0  0  0  0  0
    6.6587   11.5352   26.6048 C   0  0  0  0  0  0  0  0  0  0  0  0
    5.6916   12.2738   27.4747 C   0  0  0  0  0  0  0  0  0  0  0  0
    4.5548   12.0133   27.3945 O   0  0  0  0  0  0  0  0  0  0  0  0
    6.4296   13.2764   28.3981 N   0  0  0  0  0  0  0  0  0  0  0  0
    5.9301   14.1995   29.3127 C   0  0  0  0  0  0  0  0  0  0  0  0
    6.8283   14.9773   30.0371 C   0  0  0  0  0  0  0  0  0  0  0  0
    6.3160   15.8870   30.9471 C   0  0  0  0  0  0  0  0  0  0  0  0
    4.9978   16.0637   31.1700 N   0  0  0  0  0  0  0  0  0  0  0  0
    4.1523   15.3004   30.4442 C   0  0  0  0  0  0  0  0  0  0  0  0
    4.5655   14.3616   29.5140 C   0  0  0  0  0  0  0  0  0  0  0  0
    6.4278   10.1862   26.3556 C   0  0  0  0  0  0  0  0  0  0  0  0
    7.2677    9.4715   25.5007 C   0  0  0  0  0  0  0  0  0  0  0  0
    8.3280   10.1280   24.8784 C   0  0  0  0  0  0  0  0  0  0  0  0
  1  2  1  0
  2  3  1  0
  3  4  2  0
  4  5  1  0
  5  6  2  3
  6  7  1  0
  7  8  2  0
  7  9  1  0
  9 10  1  0
 11 10  1  1
 11 12  1  0
 12 13  1  0
 13 14  1  6
 13 15  1  0
 15 16  1  6
 15 17  1  0
  9 18  1  0
 18 19  1  0
 19 20  1  0
 20 21  1  0
 21 22  1  0
  4 23  1  0
 23 24  2  0
 24 25  1  0
 25 26  1  0
 26 27  2  0
 26 28  1  0
 28 29  1  0
 29 30  2  0
 30 31  1  0
 31 32  2  0
 32 33  1  0
 33 34  2  0
 25 35  2  0
 35 36  1  0
 36 37  2  0
 37  2  1  0
 22  5  1  0
 37 23  1  0
 17 11  1  0
 34 29  1  0
M  END
>  <ref_pdb>  (97) 
A3306a

>  <subsites>  (97) 
1 - Active Site

>  <HIPPO Compound ID>  (97) 
138541

>  <energy_score>  (97) 
-90.175907

>  <fragmenstein_mode>  (97) 
expansion

>  <scratch_subdir>  (97) 
/opt/xchem-fragalysis-2/maxwin/BulkDock/SCRATCH/513029/C263575-P168

>  <smiles>  (97) 
Cn1nc(C2=NC(=O)N(C[C@@H]3C[S@@H](O)[C@@H](N)N3)CCCCN2)c2cc(C(=O)Nc3ccncc3)ccc21

>  <alias>  (97) 
None

>  <ref_mols>  (97) 
A3306a,A4877b

>  <inspiration_score>  (97) 
None

>  <tags>  (97) 
openbind_a71ev2a_c1_fragmenstein,BulkDock Fragalysis export,fragmenstein_placed,openbind_a71ev2a_c1_scaffolds

>  <fragmenstein_outcome>  (97) 
acceptable

>  <fragmenstein_error>  (97) 


>  <distance_score>  (97) 
0.736969

>  <inchikey>  (97) 
QHSCXGMDNOKEGD-UHFFFAOYSA-N

>  <name>  (97) 
P52339

>  <HIPPO Pose ID>  (97) 
52339

>  <Energy>  (97) 
7.463106

>  <exports>  (97) 
['/opt/xchem-fragalysis-2/maxwin/BulkDock/OUTPUTS/openbind_a71ev2a_c1_fragmenstein_165VU4J.sdf', '/opt/xchem-fragalysis-2/maxwin/BulkDock/OUTPUTS/openbind_a71ev2a_c1_fragmenstein_1B07P1I.sdf', '/opt/xchem-fragalysis-2/maxwin/BulkDock/OUTPUTS/openbind_a71ev2a_c1_fragmenstein_1B07Y79.sdf', '/opt/xchem-fragalysis-2/maxwin/openbind-hippo/a71ev2a/openbind_a71ev2a_c1_scaffold_products.sdf', '/opt/xchem-fragalysis-2/maxwin/openbind-hippo/a71ev2a/cycle_01/bulkdock/openbind_a71ev2a_c1_scaffold_products.sdf', '/opt/xchem-fragalysis-2/maxwin/openbind-hippo/a71ev2a/cycle_01/bulkdock/openbind_a71ev2a_c1_scaffolds.sdf']

>  <fragmenstein_runtime>  (97) 
7.442404

$$$$
P53507
     RDKit          3D

 22 24  0  0  0  0  0  0  0  0999 V2000
    9.6751   15.4199   24.8976 C   0  0  0  0  0  0  0  0  0  0  0  0
    9.8869   14.5268   24.1280 C   0  0  0  0  0  0  0  0  0  0  0  0
   10.1973   13.4338   23.2150 C   0  0  2  0  0  0  0  0  0  0  0  0
    9.8897   13.7413   21.8168 N   0  0  0  0  0  0  0  0  0  0  0  0
   10.6105   14.8519   21.1533 C   0  0  1  0  0  0  0  0  0  0  0  0
    9.8385   16.1660   21.3139 C   0  0  0  0  0  0  0  0  0  0  0  0
   12.1164   14.9702   21.4760 C   0  0  0  0  0  0  0  0  0  0  0  0
   12.8270   15.9331   20.5945 C   0  0  0  0  0  0  0  0  0  0  0  0
   13.5361   17.0663   20.9177 C   0  0  0  0  0  0  0  0  0  0  0  0
   13.9582   17.6543   19.7641 O   0  0  0  0  0  0  0  0  0  0  0  0
   13.4913   16.8184   18.7935 C   0  0  0  0  0  0  0  0  0  0  0  0
   12.8304   15.7714   19.2322 N   0  0  0  0  0  0  0  0  0  0  0  0
    9.4507   12.1606   23.5886 C   0  0  0  0  0  0  0  0  0  0  0  0
    9.8815   11.0181   23.0306 N   0  0  0  0  0  0  0  0  0  0  0  0
    9.0620   10.0715   23.4960 N   0  0  0  0  0  0  0  0  0  0  0  0
    9.1921    8.7326   22.9774 C   0  0  0  0  0  0  0  0  0  0  0  0
    8.1663   10.5257   24.4253 C   0  0  0  0  0  0  0  0  0  0  0  0
    7.2128    9.8612   25.2047 C   0  0  0  0  0  0  0  0  0  0  0  0
    6.4028   10.6194   26.0482 C   0  0  0  0  0  0  0  0  0  0  0  0
    6.5301   12.0023   26.0894 C   0  0  0  0  0  0  0  0  0  0  0  0
    7.4913   12.6562   25.3050 C   0  0  0  0  0  0  0  0  0  0  0  0
    8.3485   11.9074   24.4704 C   0  0  0  0  0  0  0  0  0  0  0  0
  1  2  3  0
  3  2  1  1
  3  4  1  0
  4  5  1  0
  5  6  1  1
  5  7  1  0
  7  8  1  0
  8  9  2  0
  9 10  1  0
 10 11  1  0
 11 12  2  0
  3 13  1  0
 13 14  2  0
 14 15  1  0
 15 16  1  0
 15 17  1  0
 17 18  2  0
 18 19  1  0
 19 20  2  0
 20 21  1  0
 21 22  2  0
 12  8  1  0
 22 13  1  0
 22 17  1  0
M  END
>  <ref_pdb>  (98) 
A3371a

>  <subsites>  (98) 
1 - Active Site

>  <HIPPO Compound ID>  (98) 
192018

>  <energy_score>  (98) 
-38.696402

>  <fragmenstein_mode>  (98) 
expansion

>  <scratch_subdir>  (98) 
/opt/xchem-fragalysis-2/maxwin/BulkDock/SCRATCH/513029/C192018-P174

>  <smiles>  (98) 
C#C[C@H](N[C@@H](C)Cc1cocn1)c1nn(C)c2ccccc12

>  <alias>  (98) 
None

>  <ref_mols>  (98) 
A4786a,A3371a

>  <inspiration_score>  (98) 
None

>  <tags>  (98) 
openbind_a71ev2a_c1_fragmenstein,BulkDock Fragalysis export,fragmenstein_placed,openbind_a71ev2a_c1_scaffolds

>  <fragmenstein_outcome>  (98) 
acceptable

>  <fragmenstein_error>  (98) 


>  <distance_score>  (98) 
0.947009

>  <inchikey>  (98) 
PVWWIGZYJBKIAA-UHFFFAOYSA-N

>  <name>  (98) 
P53507

>  <HIPPO Pose ID>  (98) 
53507

>  <Energy>  (98) 
81.066853

>  <exports>  (98) 
['/opt/xchem-fragalysis-2/maxwin/BulkDock/OUTPUTS/openbind_a71ev2a_c1_fragmenstein_165VU4J.sdf', '/opt/xchem-fragalysis-2/maxwin/BulkDock/OUTPUTS/openbind_a71ev2a_c1_fragmenstein_1B07P1I.sdf', '/opt/xchem-fragalysis-2/maxwin/BulkDock/OUTPUTS/openbind_a71ev2a_c1_fragmenstein_1B07Y79.sdf', '/opt/xchem-fragalysis-2/maxwin/openbind-hippo/a71ev2a/openbind_a71ev2a_c1_scaffold_products.sdf', '/opt/xchem-fragalysis-2/maxwin/openbind-hippo/a71ev2a/cycle_01/bulkdock/openbind_a71ev2a_c1_scaffold_products.sdf', '/opt/xchem-fragalysis-2/maxwin/openbind-hippo/a71ev2a/cycle_01/bulkdock/openbind_a71ev2a_c1_scaffolds.sdf']

>  <fragmenstein_runtime>  (98) 
2.649911

$$$$
P54413
     RDKit          3D

 24 26  0  0  0  0  0  0  0  0999 V2000
    8.9881   14.4085   26.3341 O   0  0  0  0  0  0  0  0  0  0  0  0
    8.3639   13.8670   25.4248 C   0  0  0  0  0  0  0  0  0  0  0  0
    7.0638   14.4572   24.8954 C   0  0  0  0  0  0  0  0  0  0  0  0
    6.7958   14.0153   23.5088 N   0  0  0  0  0  0  0  0  0  0  0  0
    7.6820   14.6777   22.5516 C   0  0  0  0  0  0  0  0  0  0  0  0
    7.0570   16.0299   22.3514 C   0  0  0  0  0  0  0  0  0  0  0  0
    5.5767   15.8676   22.6382 C   0  0  0  0  0  0  0  0  0  0  0  0
    5.4471   14.4413   23.0985 C   0  0  0  0  0  0  0  0  0  0  0  0
    8.7493   12.5379   24.9229 C   0  0  0  0  0  0  0  0  0  0  0  0
    7.8602   11.4885   25.1925 C   0  0  0  0  0  0  0  0  0  0  0  0
    8.0767   10.2395   24.6276 C   0  0  0  0  0  0  0  0  0  0  0  0
    9.1352   10.0569   23.7444 C   0  0  0  0  0  0  0  0  0  0  0  0
   10.0144   11.1077   23.4731 C   0  0  0  0  0  0  0  0  0  0  0  0
    9.8677   12.3441   24.1078 C   0  0  0  0  0  0  0  0  0  0  0  0
   10.9766   13.3441   24.0499 C   0  0  0  0  0  0  0  0  0  0  0  0
   11.3155   13.8195   25.0541 O   0  0  0  0  0  0  0  0  0  0  0  0
   11.5309   13.5149   22.6355 N   0  0  0  0  0  0  0  0  0  0  0  0
   12.5637   14.3815   22.1350 C   0  0  0  0  0  0  0  0  0  0  0  0
   12.6204   14.5141   20.6257 C   0  0  0  0  0  0  0  0  0  0  0  0
   11.4438   15.2120   20.0636 C   0  0  0  0  0  0  0  0  0  0  0  0
   11.0221   15.2838   18.7604 C   0  0  0  0  0  0  0  0  0  0  0  0
    9.9674   16.1413   18.7066 O   0  0  0  0  0  0  0  0  0  0  0  0
    9.8347   16.5813   19.9839 C   0  0  0  0  0  0  0  0  0  0  0  0
   10.6402   16.0078   20.8427 N   0  0  0  0  0  0  0  0  0  0  0  0
  1  2  2  0
  2  3  1  0
  3  4  1  0
  4  5  1  0
  5  6  1  0
  6  7  1  0
  7  8  1  0
  2  9  1  0
  9 10  2  0
 10 11  1  0
 11 12  2  0
 12 13  1  0
 13 14  2  0
 14 15  1  0
 15 16  2  0
 15 17  1  0
 17 18  1  0
 18 19  1  0
 19 20  1  0
 20 21  2  0
 21 22  1  0
 22 23  1  0
 23 24  2  0
  8  4  1  0
 14  9  1  0
 24 20  1  0
M  END
>  <ref_pdb>  (99) 
A3410a

>  <subsites>  (99) 
1 - Active Site

>  <HIPPO Compound ID>  (99) 
211420

>  <energy_score>  (99) 
-14.489257

>  <fragmenstein_mode>  (99) 
expansion

>  <scratch_subdir>  (99) 
/opt/xchem-fragalysis-2/maxwin/BulkDock/SCRATCH/513029/C266916-P179

>  <smiles>  (99) 
O=C(CN1CCCC1)c1ccccc1C(=O)NCCc1cocn1

>  <alias>  (99) 
None

>  <ref_mols>  (99) 
A3410a,A0375b

>  <inspiration_score>  (99) 
None

>  <tags>  (99) 
openbind_a71ev2a_c1_fragmenstein,BulkDock Fragalysis export,fragmenstein_placed,openbind_a71ev2a_c1_scaffolds

>  <fragmenstein_outcome>  (99) 
acceptable

>  <fragmenstein_error>  (99) 


>  <distance_score>  (99) 
0.861328

>  <inchikey>  (99) 
KINPTNKBZKLBEK-UHFFFAOYSA-N

>  <name>  (99) 
P54413

>  <HIPPO Pose ID>  (99) 
54413

>  <Energy>  (99) 
100.570849

>  <exports>  (99) 
['/opt/xchem-fragalysis-2/maxwin/BulkDock/OUTPUTS/openbind_a71ev2a_c1_fragmenstein_165VU4J.sdf', '/opt/xchem-fragalysis-2/maxwin/BulkDock/OUTPUTS/openbind_a71ev2a_c1_fragmenstein_1B07P1I.sdf', '/opt/xchem-fragalysis-2/maxwin/BulkDock/OUTPUTS/openbind_a71ev2a_c1_fragmenstein_1B07Y79.sdf', '/opt/xchem-fragalysis-2/maxwin/openbind-hippo/a71ev2a/openbind_a71ev2a_c1_scaffold_products.sdf', '/opt/xchem-fragalysis-2/maxwin/openbind-hippo/a71ev2a/cycle_01/bulkdock/openbind_a71ev2a_c1_scaffold_products.sdf', '/opt/xchem-fragalysis-2/maxwin/openbind-hippo/a71ev2a/cycle_01/bulkdock/openbind_a71ev2a_c1_scaffolds.sdf']

>  <fragmenstein_runtime>  (99) 
5.399268

$$$$
P54491
     RDKit          3D

 19 20  0  0  0  0  0  0  0  0999 V2000
    8.3117   14.3870   25.3580 C   0  0  0  0  0  0  0  0  0  0  0  0
    8.5888   13.0079   24.8096 C   0  0  0  0  0  0  0  0  0  0  0  0
    7.8047   11.9521   25.3087 C   0  0  0  0  0  0  0  0  0  0  0  0
    8.0126   10.6418   24.8903 C   0  0  0  0  0  0  0  0  0  0  0  0
    9.0038   10.3642   23.9607 C   0  0  0  0  0  0  0  0  0  0  0  0
    9.7877   11.3986   23.4480 C   0  0  0  0  0  0  0  0  0  0  0  0
    9.6129   12.7358   23.8571 C   0  0  0  0  0  0  0  0  0  0  0  0
   10.4940   13.8441   23.2761 C   0  0  0  0  0  0  0  0  0  0  0  0
   11.0356   14.4853   24.4102 O   0  0  0  0  0  0  0  0  0  0  0  0
    9.6896   14.6959   22.5118 O   0  0  0  0  0  0  0  0  0  0  0  0
   11.6162   13.4151   22.4700 N   0  0  0  0  0  0  0  0  0  0  0  0
   12.4607   14.5254   22.0664 C   0  0  0  0  0  0  0  0  0  0  0  0
   12.9056   14.4062   20.7015 N   0  0  0  0  0  0  0  0  0  0  0  0
   11.9462   14.6233   19.6242 C   0  0  0  0  0  0  0  0  0  0  0  0
   10.9549   15.6934   19.7677 C   0  0  0  0  0  0  0  0  0  0  0  0
    9.9161   15.9590   18.9238 C   0  0  0  0  0  0  0  0  0  0  0  0
    9.2939   17.0857   19.3425 O   0  0  0  0  0  0  0  0  0  0  0  0
    9.9121   17.3780   20.4991 C   0  0  0  0  0  0  0  0  0  0  0  0
   10.9273   16.6009   20.7817 N   0  0  0  0  0  0  0  0  0  0  0  0
  1  2  1  0
  2  3  2  0
  3  4  1  0
  4  5  2  0
  5  6  1  0
  6  7  2  0
  7  8  1  0
  8  9  1  0
  8 10  1  0
  8 11  1  0
 11 12  1  0
 12 13  1  0
 13 14  1  0
 14 15  1  0
 15 16  2  0
 16 17  1  0
 17 18  1  0
 18 19  2  0
  7  2  1  0
 19 15  1  0
M  END
>  <ref_pdb>  (100) 
A3410a

>  <subsites>  (100) 
1 - Active Site

>  <HIPPO Compound ID>  (100) 
264563

>  <energy_score>  (100) 
-35.358923

>  <fragmenstein_mode>  (100) 
expansion

>  <scratch_subdir>  (100) 
/opt/xchem-fragalysis-2/maxwin/BulkDock/SCRATCH/513029/C267117-P179

>  <smiles>  (100) 
Cc1ccccc1C(O)(O)NCNCc1cocn1

>  <alias>  (100) 
None

>  <ref_mols>  (100) 
A3410a,A4207a

>  <inspiration_score>  (100) 
None

>  <tags>  (100) 
openbind_a71ev2a_c1_fragmenstein,BulkDock Fragalysis export,fragmenstein_placed,openbind_a71ev2a_c1_scaffolds

>  <fragmenstein_outcome>  (100) 
acceptable

>  <fragmenstein_error>  (100) 


>  <distance_score>  (100) 
0.87236

>  <inchikey>  (100) 
QYCKRLPOQMCSGI-UHFFFAOYSA-N

>  <name>  (100) 
P54491

>  <HIPPO Pose ID>  (100) 
54491

>  <Energy>  (100) 
-121.697395

>  <exports>  (100) 
['/opt/xchem-fragalysis-2/maxwin/BulkDock/OUTPUTS/openbind_a71ev2a_c1_fragmenstein_165VU4J.sdf', '/opt/xchem-fragalysis-2/maxwin/BulkDock/OUTPUTS/openbind_a71ev2a_c1_fragmenstein_1B07P1I.sdf', '/opt/xchem-fragalysis-2/maxwin/BulkDock/OUTPUTS/openbind_a71ev2a_c1_fragmenstein_1B07Y79.sdf', '/opt/xchem-fragalysis-2/maxwin/openbind-hippo/a71ev2a/openbind_a71ev2a_c1_scaffold_products.sdf', '/opt/xchem-fragalysis-2/maxwin/openbind-hippo/a71ev2a/cycle_01/bulkdock/openbind_a71ev2a_c1_scaffold_products.sdf', '/opt/xchem-fragalysis-2/maxwin/openbind-hippo/a71ev2a/cycle_01/bulkdock/openbind_a71ev2a_c1_scaffolds.sdf']

>  <fragmenstein_runtime>  (100) 
2.345018

$$$$
P55680
     RDKit          3D

 26 27  0  0  0  0  0  0  0  0999 V2000
    4.2420   16.6131   26.7379 C   0  0  0  0  0  0  0  0  0  0  0  0
    5.2005   15.5639   26.6225 O   0  0  0  0  0  0  0  0  0  0  0  0
    6.4737   16.1024   26.2970 C   0  0  0  0  0  0  0  0  0  0  0  0
    7.5387   15.0585   25.9294 C   0  0  0  0  0  0  0  0  0  0  0  0
    8.6689   15.3380   25.8214 O   0  0  0  0  0  0  0  0  0  0  0  0
    6.8041   13.7193   25.6577 N   0  0  0  0  0  0  0  0  0  0  0  0
    7.2761   12.5189   25.1255 C   0  0  0  0  0  0  0  0  0  0  0  0
    6.8222   11.2868   25.5751 C   0  0  0  0  0  0  0  0  0  0  0  0
    5.6520   11.1771   26.8399 Cl  0  0  0  0  0  0  0  0  0  0  0  0
    7.3732   10.1053   25.0585 C   0  0  0  0  0  0  0  0  0  0  0  0
    8.4033   10.1312   24.1084 C   0  0  0  0  0  0  0  0  0  0  0  0
    9.0200    8.8839   23.5523 C   0  0  0  0  0  0  0  0  0  0  0  0
    8.8134   11.3595   23.6116 C   0  0  0  0  0  0  0  0  0  0  0  0
    8.2265   12.5343   24.0955 C   0  0  0  0  0  0  0  0  0  0  0  0
    8.3044   13.7057   23.2156 C   0  0  0  0  0  0  0  0  0  0  0  0
    7.2449   14.1920   22.8274 O   0  0  0  0  0  0  0  0  0  0  0  0
    9.5694   14.1427   22.6221 C   0  0  0  0  0  0  0  0  0  0  0  0
   10.7980   14.0069   23.2697 C   0  0  0  0  0  0  0  0  0  0  0  0
   11.9543   14.3595   22.5885 C   0  0  0  0  0  0  0  0  0  0  0  0
   11.8690   14.8455   21.2816 C   0  0  0  0  0  0  0  0  0  0  0  0
   10.6265   15.0030   20.6291 C   0  0  0  0  0  0  0  0  0  0  0  0
   10.4895   15.7055   19.3020 C   0  0  0  0  0  0  0  0  0  0  0  0
   11.6533   15.6207   18.5128 N   0  0  0  0  0  0  0  0  0  0  0  0
   10.1769   17.0659   19.5335 N   0  0  0  0  0  0  0  0  0  0  0  0
    9.4473   15.3293   18.4879 O   0  0  0  0  0  0  0  0  0  0  0  0
    9.4792   14.6528   21.3285 C   0  0  0  0  0  0  0  0  0  0  0  0
  1  2  1  0
  2  3  1  0
  3  4  1  0
  4  5  2  0
  4  6  1  0
  6  7  1  0
  7  8  2  0
  8  9  1  0
  8 10  1  0
 10 11  2  0
 11 12  1  0
 11 13  1  0
 13 14  2  0
 14 15  1  0
 15 16  2  0
 15 17  1  0
 17 18  2  0
 18 19  1  0
 19 20  2  0
 20 21  1  0
 21 22  1  0
 22 23  1  0
 22 24  1  0
 22 25  1  0
 21 26  2  0
 14  7  1  0
 26 17  1  0
M  END
>  <ref_pdb>  (101) 
A3488a

>  <subsites>  (101) 
1 - Active Site

>  <HIPPO Compound ID>  (101) 
176894

>  <energy_score>  (101) 
-31.983193

>  <fragmenstein_mode>  (101) 
expansion

>  <scratch_subdir>  (101) 
/opt/xchem-fragalysis-2/maxwin/BulkDock/SCRATCH/513030/C190639-P188

>  <smiles>  (101) 
COCC(=O)Nc1c(Cl)cc(C)cc1C(=O)c1cccc(C(N)(N)O)c1

>  <alias>  (101) 
None

>  <ref_mols>  (101) 
A4559a,A3488a

>  <inspiration_score>  (101) 
None

>  <tags>  (101) 
openbind_a71ev2a_c1_fragmenstein,BulkDock Fragalysis export,fragmenstein_placed,openbind_a71ev2a_c1_scaffolds

>  <fragmenstein_outcome>  (101) 
acceptable

>  <fragmenstein_error>  (101) 


>  <distance_score>  (101) 
0.666791

>  <inchikey>  (101) 
PSIYEGSIAUUUKH-UHFFFAOYSA-N

>  <name>  (101) 
P55680

>  <HIPPO Pose ID>  (101) 
55680

>  <Energy>  (101) 
-49.728974

>  <exports>  (101) 
['/opt/xchem-fragalysis-2/maxwin/BulkDock/OUTPUTS/openbind_a71ev2a_c1_fragmenstein_165VU4J.sdf', '/opt/xchem-fragalysis-2/maxwin/BulkDock/OUTPUTS/openbind_a71ev2a_c1_fragmenstein_1B07P1I.sdf', '/opt/xchem-fragalysis-2/maxwin/BulkDock/OUTPUTS/openbind_a71ev2a_c1_fragmenstein_1B07Y79.sdf', '/opt/xchem-fragalysis-2/maxwin/openbind-hippo/a71ev2a/openbind_a71ev2a_c1_scaffold_products.sdf', '/opt/xchem-fragalysis-2/maxwin/openbind-hippo/a71ev2a/cycle_01/bulkdock/openbind_a71ev2a_c1_scaffold_products.sdf', '/opt/xchem-fragalysis-2/maxwin/openbind-hippo/a71ev2a/cycle_01/bulkdock/openbind_a71ev2a_c1_scaffolds.sdf']

>  <fragmenstein_runtime>  (101) 
5.856827

$$$$
P56471
     RDKit          3D

 24 26  0  0  0  0  0  0  0  0999 V2000
    7.4154   15.2007   23.9179 C   0  0  0  0  0  0  0  0  0  0  0  0
    8.7440   14.6882   24.2838 N   0  0  0  0  0  0  0  0  0  0  0  0
    9.1749   13.6395   23.3946 C   0  0  1  0  0  0  0  0  0  0  0  0
    8.7685   13.8853   22.0802 O   0  0  0  0  0  0  0  0  0  0  0  0
   10.6073   13.5246   23.4715 N   0  0  0  0  0  0  0  0  0  0  0  0
   11.5407   14.5695   23.1043 C   0  0  1  0  0  0  0  0  0  0  0  0
   12.7573   14.1631   23.9380 C   0  0  0  0  0  0  0  0  0  0  0  0
   11.9455   14.6762   21.6169 C   0  0  0  0  0  0  0  0  0  0  0  0
   10.9939   15.4434   20.7793 C   0  0  0  0  0  0  0  0  0  0  0  0
   10.1811   16.4011   21.3335 N   0  0  0  0  0  0  0  0  0  0  0  0
    9.5018   16.8720   20.3159 C   0  0  0  0  0  0  0  0  0  0  0  0
    9.7989   16.2970   19.1194 O   0  0  0  0  0  0  0  0  0  0  0  0
   10.7635   15.3893   19.4225 C   0  0  0  0  0  0  0  0  0  0  0  0
   11.2795   14.6997   18.3978 N   0  0  0  0  0  0  0  0  0  0  0  0
    8.7087   12.2559   23.8387 C   0  0  0  0  0  0  0  0  0  0  0  0
    9.2691   11.1982   23.2113 N   0  0  0  0  0  0  0  0  0  0  0  0
    8.6846   10.1308   23.7564 N   0  0  0  0  0  0  0  0  0  0  0  0
    9.0371    8.8302   23.2407 C   0  0  0  0  0  0  0  0  0  0  0  0
    7.7789   10.4472   24.7349 C   0  0  0  0  0  0  0  0  0  0  0  0
    6.9361    9.6628   25.5190 C   0  0  0  0  0  0  0  0  0  0  0  0
    6.1225   10.2809   26.4697 C   0  0  0  0  0  0  0  0  0  0  0  0
    6.1510   11.6568   26.6329 C   0  0  0  0  0  0  0  0  0  0  0  0
    6.9866   12.4399   25.8315 C   0  0  0  0  0  0  0  0  0  0  0  0
    7.8005   11.8339   24.8491 C   0  0  0  0  0  0  0  0  0  0  0  0
  1  2  1  0
  2  3  1  0
  3  4  1  6
  3  5  1  0
  5  6  1  0
  6  7  1  1
  6  8  1  0
  8  9  1  0
  9 10  1  0
 10 11  2  0
 11 12  1  0
 12 13  1  0
 13 14  1  0
  3 15  1  0
 15 16  2  0
 16 17  1  0
 17 18  1  0
 17 19  1  0
 19 20  2  0
 20 21  1  0
 21 22  2  0
 22 23  1  0
 23 24  2  0
 13  9  2  0
 24 15  1  0
 24 19  1  0
M  END
>  <ref_pdb>  (102) 
A3593a

>  <subsites>  (102) 
1 - Active Site

>  <HIPPO Compound ID>  (102) 
195109

>  <energy_score>  (102) 
-51.6425

>  <fragmenstein_mode>  (102) 
expansion

>  <scratch_subdir>  (102) 
/opt/xchem-fragalysis-2/maxwin/BulkDock/SCRATCH/513030/C192125-P193

>  <smiles>  (102) 
CN[C@@](O)(N[C@@H](C)Cc1ncoc1N)c1nn(C)c2ccccc12

>  <alias>  (102) 
None

>  <ref_mols>  (102) 
A3593a,A4403a

>  <inspiration_score>  (102) 
None

>  <tags>  (102) 
openbind_a71ev2a_c1_fragmenstein,BulkDock Fragalysis export,fragmenstein_placed,openbind_a71ev2a_c1_scaffolds

>  <fragmenstein_outcome>  (102) 
acceptable

>  <fragmenstein_error>  (102) 


>  <distance_score>  (102) 
0.895722

>  <inchikey>  (102) 
KLIJUPNPMOMPIT-UHFFFAOYSA-N

>  <name>  (102) 
P56471

>  <HIPPO Pose ID>  (102) 
56471

>  <Energy>  (102) 
-44.2418

>  <exports>  (102) 
['/opt/xchem-fragalysis-2/maxwin/BulkDock/OUTPUTS/openbind_a71ev2a_c1_fragmenstein_165VU4J.sdf', '/opt/xchem-fragalysis-2/maxwin/BulkDock/OUTPUTS/openbind_a71ev2a_c1_fragmenstein_1B07P1I.sdf', '/opt/xchem-fragalysis-2/maxwin/BulkDock/OUTPUTS/openbind_a71ev2a_c1_fragmenstein_1B07Y79.sdf', '/opt/xchem-fragalysis-2/maxwin/openbind-hippo/a71ev2a/openbind_a71ev2a_c1_scaffold_products.sdf', '/opt/xchem-fragalysis-2/maxwin/openbind-hippo/a71ev2a/cycle_01/bulkdock/openbind_a71ev2a_c1_scaffold_products.sdf', '/opt/xchem-fragalysis-2/maxwin/openbind-hippo/a71ev2a/cycle_01/bulkdock/openbind_a71ev2a_c1_scaffolds.sdf']

>  <fragmenstein_runtime>  (102) 
4.133665

$$$$
P67648
     RDKit          3D

 13 13  0  0  0  0  0  0  0  0999 V2000
   11.1770   15.2365   23.9757 C   0  0  0  0  0  0  0  0  0  0  0  0
    9.9138   14.5517   23.4931 C   0  0  0  0  0  0  0  0  0  0  0  0
    9.3284   13.6394   24.5745 C   0  0  0  0  0  0  0  0  0  0  0  0
    8.1228   12.8589   24.0494 C   0  0  1  0  0  0  0  0  0  0  0  0
    8.5354   11.8169   23.1748 O   0  0  0  0  0  0  0  0  0  0  0  0
    7.3618   12.1840   25.1419 C   0  0  0  0  0  0  0  0  0  0  0  0
    6.6139   12.7133   26.1732 C   0  0  0  0  0  0  0  0  0  0  0  0
    5.9342   11.6452   26.8272 C   0  0  0  0  0  0  0  0  0  0  0  0
    4.9201   11.7799   27.9231 C   0  0  1  0  0  0  0  0  0  0  0  0
    5.5437   11.7813   29.3111 C   0  0  0  0  0  0  0  0  0  0  0  0
    4.1670   12.9845   27.7767 O   0  0  0  0  0  0  0  0  0  0  0  0
    6.3471   10.4838   26.1999 C   0  0  0  0  0  0  0  0  0  0  0  0
    7.2297   10.8152   25.2061 N   0  0  0  0  0  0  0  0  0  0  0  0
  1  2  1  0
  2  3  1  0
  3  4  1  0
  4  5  1  6
  4  6  1  0
  6  7  2  0
  7  8  1  0
  8  9  1  0
  9 10  1  1
  9 11  1  0
  8 12  2  0
 12 13  1  0
 13  6  1  0
M  END
>  <ref_pdb>  (103) 
A4018a

>  <subsites>  (103) 
1 - Active Site

>  <HIPPO Compound ID>  (103) 
177719

>  <energy_score>  (103) 
-17.677629

>  <fragmenstein_mode>  (103) 
expansion

>  <scratch_subdir>  (103) 
/opt/xchem-fragalysis-2/maxwin/BulkDock/SCRATCH/513034/C177719-P268

>  <smiles>  (103) 
CCC[C@@H](O)c1cc([C@@H](C)O)c[nH]1

>  <alias>  (103) 
None

>  <ref_mols>  (103) 
A4018a,A4309b

>  <inspiration_score>  (103) 
None

>  <tags>  (103) 
openbind_a71ev2a_c1_fragmenstein,BulkDock Fragalysis export,fragmenstein_placed,openbind_a71ev2a_c1_scaffolds

>  <fragmenstein_outcome>  (103) 
acceptable

>  <fragmenstein_error>  (103) 


>  <distance_score>  (103) 
0.745016

>  <inchikey>  (103) 
WECSMDFTHCGFKA-UHFFFAOYSA-N

>  <name>  (103) 
P67648

>  <HIPPO Pose ID>  (103) 
67648

>  <Energy>  (103) 
-2.463243

>  <exports>  (103) 
['/opt/xchem-fragalysis-2/maxwin/BulkDock/OUTPUTS/openbind_a71ev2a_c1_fragmenstein_165VU4J.sdf', '/opt/xchem-fragalysis-2/maxwin/BulkDock/OUTPUTS/openbind_a71ev2a_c1_fragmenstein_1B07P1I.sdf', '/opt/xchem-fragalysis-2/maxwin/BulkDock/OUTPUTS/openbind_a71ev2a_c1_fragmenstein_1B07Y79.sdf', '/opt/xchem-fragalysis-2/maxwin/openbind-hippo/a71ev2a/openbind_a71ev2a_c1_scaffold_products.sdf', '/opt/xchem-fragalysis-2/maxwin/openbind-hippo/a71ev2a/cycle_01/bulkdock/openbind_a71ev2a_c1_scaffold_products.sdf', '/opt/xchem-fragalysis-2/maxwin/openbind-hippo/a71ev2a/cycle_01/bulkdock/openbind_a71ev2a_c1_scaffolds.sdf']

>  <fragmenstein_runtime>  (103) 
1.584357

$$$$
P71485
     RDKit          3D

 27 29  0  0  0  0  0  0  0  0999 V2000
   10.7397   12.2006   24.5675 C   0  0  0  0  0  0  0  0  0  0  0  0
    9.6713   10.8640   23.8688 S   0  0  0  0  0  0  0  0  0  0  0  0
    8.1676   11.1460   24.7791 C   0  0  0  0  0  0  0  0  0  0  0  0
    7.6224    9.9740   25.3110 C   0  0  0  0  0  0  0  0  0  0  0  0
    6.5620   10.0438   26.1838 C   0  0  0  0  0  0  0  0  0  0  0  0
    6.0605   11.2873   26.5398 C   0  0  0  0  0  0  0  0  0  0  0  0
    6.5675   12.5042   26.0156 C   0  0  0  0  0  0  0  0  0  0  0  0
    5.9602   13.8326   26.5470 C   0  0  0  0  0  0  0  0  0  0  0  0
    4.7965   13.6204   27.5575 C   0  0  0  0  0  0  0  0  0  0  0  0
    7.0227   14.6368   27.3362 C   0  0  0  0  0  0  0  0  0  0  0  0
    5.3466   14.6793   25.4104 C   0  0  0  0  0  0  0  0  0  0  0  0
    7.6253   12.4291   25.0589 C   0  0  0  0  0  0  0  0  0  0  0  0
    8.2064   13.5862   24.5171 N   0  0  0  0  0  0  0  0  0  0  0  0
    8.1965   14.0183   23.1393 C   0  0  0  0  0  0  0  0  0  0  0  0
    8.9232   13.1802   22.3282 O   0  0  0  0  0  0  0  0  0  0  0  0
    6.8703   13.9462   22.7135 O   0  0  0  0  0  0  0  0  0  0  0  0
    8.7058   15.3583   22.9394 N   0  0  0  0  0  0  0  0  0  0  0  0
    9.9930   15.6000   23.6107 C   0  0  0  0  0  0  0  0  0  0  0  0
   11.2544   15.3544   22.7889 C   0  0  0  0  0  0  0  0  0  0  0  0
   11.2516   16.1925   21.5266 C   0  0  2  0  0  0  0  0  0  0  0  0
   11.2376   17.5557   21.8776 O   0  0  0  0  0  0  0  0  0  0  0  0
   10.0399   15.8024   20.6907 C   0  0  2  0  0  0  0  0  0  0  0  0
   10.3935   14.5002   20.0216 C   0  0  0  0  0  0  0  0  0  0  0  0
   10.8553   14.8385   18.6799 N   0  0  0  0  0  0  0  0  0  0  0  0
   10.4328   16.1603   18.4301 N   0  0  0  0  0  0  0  0  0  0  0  0
    9.7717   16.6764   19.5492 N   0  0  0  0  0  0  0  0  0  0  0  0
    8.7255   15.8140   21.5324 C   0  0  0  0  0  0  0  0  0  0  0  0
  1  2  1  0
  2  3  1  0
  3  4  2  0
  4  5  1  0
  5  6  2  0
  6  7  1  0
  7  8  1  0
  8  9  1  0
  8 10  1  0
  8 11  1  0
  7 12  2  0
 12 13  1  0
 13 14  1  0
 14 15  1  0
 14 16  1  0
 14 17  1  0
 17 18  1  0
 18 19  1  0
 19 20  1  0
 20 21  1  1
 20 22  1  0
 22 23  1  6
 23 24  1  0
 24 25  1  0
 25 26  1  0
 22 27  1  0
 12  3  1  0
 27 17  1  0
 26 22  1  0
M  END
>  <ref_pdb>  (104) 
A4311a

>  <subsites>  (104) 
1 - Active Site

>  <HIPPO Compound ID>  (104) 
161860

>  <energy_score>  (104) 
-74.486685

>  <fragmenstein_mode>  (104) 
expansion

>  <scratch_subdir>  (104) 
/opt/xchem-fragalysis-2/maxwin/BulkDock/SCRATCH/513035/C161236-P296

>  <smiles>  (104) 
CSc1cccc(C(C)(C)C)c1NC(O)(O)N1CC[C@H](O)[C@@]2(CNNN2)C1

>  <alias>  (104) 
None

>  <ref_mols>  (104) 
A4311a,A0487a

>  <inspiration_score>  (104) 
None

>  <tags>  (104) 
openbind_a71ev2a_c1_fragmenstein,BulkDock Fragalysis export,fragmenstein_placed,openbind_a71ev2a_c1_scaffolds

>  <fragmenstein_outcome>  (104) 
acceptable

>  <fragmenstein_error>  (104) 


>  <distance_score>  (104) 
0.886381

>  <inchikey>  (104) 
UWUWVBJAARDSSL-UHFFFAOYSA-N

>  <name>  (104) 
P71485

>  <HIPPO Pose ID>  (104) 
71485

>  <Energy>  (104) 
-61.523166

>  <exports>  (104) 
['/opt/xchem-fragalysis-2/maxwin/BulkDock/OUTPUTS/openbind_a71ev2a_c1_fragmenstein_165VU4J.sdf', '/opt/xchem-fragalysis-2/maxwin/BulkDock/OUTPUTS/openbind_a71ev2a_c1_fragmenstein_1B07P1I.sdf', '/opt/xchem-fragalysis-2/maxwin/BulkDock/OUTPUTS/openbind_a71ev2a_c1_fragmenstein_1B07Y79.sdf', '/opt/xchem-fragalysis-2/maxwin/openbind-hippo/a71ev2a/openbind_a71ev2a_c1_scaffold_products.sdf', '/opt/xchem-fragalysis-2/maxwin/openbind-hippo/a71ev2a/cycle_01/bulkdock/openbind_a71ev2a_c1_scaffold_products.sdf', '/opt/xchem-fragalysis-2/maxwin/openbind-hippo/a71ev2a/cycle_01/bulkdock/openbind_a71ev2a_c1_scaffolds.sdf']

>  <fragmenstein_runtime>  (104) 
8.065427

$$$$
P80496
     RDKit          3D

 21 22  0  0  0  0  0  0  0  0999 V2000
    9.3423   17.1205   27.5987 C   0  0  0  0  0  0  0  0  0  0  0  0
    9.6711   16.2750   26.5058 O   0  0  0  0  0  0  0  0  0  0  0  0
    9.4079   14.9134   26.8013 C   0  0  0  0  0  0  0  0  0  0  0  0
    9.4441   14.0196   25.5522 C   0  0  0  0  0  0  0  0  0  0  0  0
   10.4357   14.0053   24.8193 O   0  0  0  0  0  0  0  0  0  0  0  0
    8.1909   13.1501   25.2934 C   0  0  2  0  0  0  0  0  0  0  0  0
    8.4865   11.7434   24.7509 C   0  0  0  0  0  0  0  0  0  0  0  0
    9.3463   11.5536   23.6551 C   0  0  0  0  0  0  0  0  0  0  0  0
    9.6019   10.2754   23.1490 C   0  0  0  0  0  0  0  0  0  0  0  0
    9.0239    9.1625   23.7255 C   0  0  0  0  0  0  0  0  0  0  0  0
    9.2550    7.9459   23.2192 F   0  0  0  0  0  0  0  0  0  0  0  0
    8.1630    9.3115   24.7927 C   0  0  0  0  0  0  0  0  0  0  0  0
    7.8865   10.5862   25.2946 C   0  0  0  0  0  0  0  0  0  0  0  0
    6.7241   10.6499   26.5683 Cl  0  0  0  0  0  0  0  0  0  0  0  0
    7.1023   13.9695   24.5198 C   0  0  1  0  0  0  0  0  0  0  0  0
    7.5607   14.3353   23.0974 C   0  0  0  0  0  0  0  0  0  0  0  0
    5.7609   13.2005   24.4681 C   0  0  0  0  0  0  0  0  0  0  0  0
    4.6073   14.0390   23.9272 C   0  0  0  0  0  0  0  0  0  0  0  0
    4.6539   15.4701   24.4500 C   0  0  0  0  0  0  0  0  0  0  0  0
    5.6290   15.6070   25.6045 C   0  0  0  0  0  0  0  0  0  0  0  0
    6.9466   15.2118   25.2392 O   0  0  0  0  0  0  0  0  0  0  0  0
  1  2  1  0
  2  3  1  0
  3  4  1  0
  4  5  2  0
  6  4  1  6
  6  7  1  0
  7  8  2  0
  8  9  1  0
  9 10  2  0
 10 11  1  0
 10 12  1  0
 12 13  2  0
 13 14  1  0
  6 15  1  0
 15 16  1  6
 15 17  1  0
 17 18  1  0
 18 19  1  0
 19 20  1  0
 20 21  1  0
 13  7  1  0
 21 15  1  0
M  END
>  <ref_pdb>  (105) 
A4416a

>  <subsites>  (105) 
1 - Active Site

>  <HIPPO Compound ID>  (105) 
215084

>  <energy_score>  (105) 
-34.410517

>  <fragmenstein_mode>  (105) 
expansion

>  <scratch_subdir>  (105) 
/opt/xchem-fragalysis-2/maxwin/BulkDock/SCRATCH/513039/C215084-P355

>  <smiles>  (105) 
COCC(=O)[C@H](c1ccc(F)cc1Cl)[C@@]1(C)CCCCO1

>  <alias>  (105) 
None

>  <ref_mols>  (105) 
A3450a,A4416a

>  <inspiration_score>  (105) 
None

>  <tags>  (105) 
openbind_a71ev2a_c1_fragmenstein,BulkDock Fragalysis export,fragmenstein_placed,openbind_a71ev2a_c1_scaffolds

>  <fragmenstein_outcome>  (105) 
acceptable

>  <fragmenstein_error>  (105) 


>  <distance_score>  (105) 
0.859568

>  <inchikey>  (105) 
PBUVVEGHRQRWFC-UHFFFAOYSA-N

>  <name>  (105) 
P80496

>  <HIPPO Pose ID>  (105) 
80496

>  <Energy>  (105) 
80.312735

>  <exports>  (105) 
['/opt/xchem-fragalysis-2/maxwin/BulkDock/OUTPUTS/openbind_a71ev2a_c1_fragmenstein_165VU4J.sdf', '/opt/xchem-fragalysis-2/maxwin/BulkDock/OUTPUTS/openbind_a71ev2a_c1_fragmenstein_1B07P1I.sdf', '/opt/xchem-fragalysis-2/maxwin/BulkDock/OUTPUTS/openbind_a71ev2a_c1_fragmenstein_1B07Y79.sdf', '/opt/xchem-fragalysis-2/maxwin/openbind-hippo/a71ev2a/openbind_a71ev2a_c1_scaffold_products.sdf', '/opt/xchem-fragalysis-2/maxwin/openbind-hippo/a71ev2a/cycle_01/bulkdock/openbind_a71ev2a_c1_scaffold_products.sdf', '/opt/xchem-fragalysis-2/maxwin/openbind-hippo/a71ev2a/cycle_01/bulkdock/openbind_a71ev2a_c1_scaffolds.sdf']

>  <fragmenstein_runtime>  (105) 
1.822549

$$$$
P81034
     RDKit          3D

 11 12  0  0  0  0  0  0  0  0999 V2000
    8.4348   13.2202   23.5466 C   0  0  0  0  0  0  0  0  0  0  0  0
    7.6699   12.5184   24.6299 C   0  0  0  0  0  0  0  0  0  0  0  0
    7.6478   11.1131   24.6933 C   0  0  0  0  0  0  0  0  0  0  0  0
    6.8868   10.4522   25.6623 C   0  0  0  0  0  0  0  0  0  0  0  0
    6.1786   11.2050   26.5850 C   0  0  0  0  0  0  0  0  0  0  0  0
    6.1884   12.6020   26.5231 C   0  0  0  0  0  0  0  0  0  0  0  0
    6.9092   13.2646   25.5408 C   0  0  0  0  0  0  0  0  0  0  0  0
    5.3146   13.1886   27.5976 C   0  0  2  0  0  0  0  0  0  0  0  0
    5.8480   14.4546   28.2503 C   0  0  0  0  0  0  0  0  0  0  0  0
    5.2544   12.0081   28.5864 C   0  0  0  0  0  0  0  0  0  0  0  0
    5.3364   10.7345   27.7319 C   0  0  0  0  0  0  0  0  0  0  0  0
  1  2  1  0
  2  3  2  0
  3  4  1  0
  4  5  2  0
  5  6  1  0
  6  7  2  0
  6  8  1  0
  8  9  1  1
  8 10  1  0
 10 11  1  0
  7  2  1  0
 11  5  1  0
M  END
>  <ref_pdb>  (106) 
A4421a

>  <subsites>  (106) 
1 - Active Site

>  <HIPPO Compound ID>  (106) 
216188

>  <energy_score>  (106) 
-12.781852

>  <fragmenstein_mode>  (106) 
expansion

>  <scratch_subdir>  (106) 
/opt/xchem-fragalysis-2/maxwin/BulkDock/SCRATCH/513039/C216188-P358

>  <smiles>  (106) 
Cc1ccc2c(c1)[C@H](C)CC2

>  <alias>  (106) 
None

>  <ref_mols>  (106) 
A4447a,A4421a

>  <inspiration_score>  (106) 
None

>  <tags>  (106) 
openbind_a71ev2a_c1_fragmenstein,BulkDock Fragalysis export,fragmenstein_placed,openbind_a71ev2a_c1_scaffolds

>  <fragmenstein_outcome>  (106) 
acceptable

>  <fragmenstein_error>  (106) 


>  <distance_score>  (106) 
0.992019

>  <inchikey>  (106) 
UVRVNMDNGVIBGM-UHFFFAOYSA-N

>  <name>  (106) 
P81034

>  <HIPPO Pose ID>  (106) 
81034

>  <Energy>  (106) 
28.860001

>  <exports>  (106) 
['/opt/xchem-fragalysis-2/maxwin/BulkDock/OUTPUTS/openbind_a71ev2a_c1_fragmenstein_165VU4J.sdf', '/opt/xchem-fragalysis-2/maxwin/BulkDock/OUTPUTS/openbind_a71ev2a_c1_fragmenstein_1B07P1I.sdf', '/opt/xchem-fragalysis-2/maxwin/BulkDock/OUTPUTS/openbind_a71ev2a_c1_fragmenstein_1B07Y79.sdf', '/opt/xchem-fragalysis-2/maxwin/openbind-hippo/a71ev2a/openbind_a71ev2a_c1_scaffold_products.sdf', '/opt/xchem-fragalysis-2/maxwin/openbind-hippo/a71ev2a/cycle_01/bulkdock/openbind_a71ev2a_c1_scaffold_products.sdf', '/opt/xchem-fragalysis-2/maxwin/openbind-hippo/a71ev2a/cycle_01/bulkdock/openbind_a71ev2a_c1_scaffolds.sdf']

>  <fragmenstein_runtime>  (106) 
1.111147

$$$$
P82751
     RDKit          3D

  7  6  0  0  0  0  0  0  0  0999 V2000
    8.6077   16.0374   27.5589 C   0  0  0  0  0  0  0  0  0  0  0  0
    9.3011   15.0212   26.6679 C   0  0  0  0  0  0  0  0  0  0  0  0
    8.5104   14.7529   25.3866 C   0  0  0  0  0  0  0  0  0  0  0  0
    9.1428   13.6200   24.5745 C   0  0  0  0  0  0  0  0  0  0  0  0
    8.8295   13.6885   23.0792 C   0  0  0  0  0  0  0  0  0  0  0  0
    7.4903   13.2927   22.7839 O   0  0  0  0  0  0  0  0  0  0  0  0
    6.6439   14.4071   22.5105 C   0  0  0  0  0  0  0  0  0  0  0  0
  1  2  1  0
  2  3  1  0
  3  4  1  0
  4  5  1  0
  5  6  1  0
  6  7  1  0
M  END
>  <ref_pdb>  (107) 
A4449a

>  <subsites>  (107) 
1 - Active Site

>  <HIPPO Compound ID>  (107) 
179963

>  <energy_score>  (107) 
-6.466445

>  <fragmenstein_mode>  (107) 
expansion

>  <scratch_subdir>  (107) 
/opt/xchem-fragalysis-2/maxwin/BulkDock/SCRATCH/513039/C179963-P367

>  <smiles>  (107) 
CCCCCOC

>  <alias>  (107) 
None

>  <ref_mols>  (107) 
A4977b,A4449a

>  <inspiration_score>  (107) 
None

>  <tags>  (107) 
openbind_a71ev2a_c1_fragmenstein,BulkDock Fragalysis export,fragmenstein_placed,openbind_a71ev2a_c1_scaffolds

>  <fragmenstein_outcome>  (107) 
acceptable

>  <fragmenstein_error>  (107) 


>  <distance_score>  (107) 
0.850692

>  <inchikey>  (107) 
DBUJFULDVAZULB-UHFFFAOYSA-N

>  <name>  (107) 
P82751

>  <HIPPO Pose ID>  (107) 
82751

>  <Energy>  (107) 
7.992433

>  <exports>  (107) 
['/opt/xchem-fragalysis-2/maxwin/BulkDock/OUTPUTS/openbind_a71ev2a_c1_fragmenstein_165VU4J.sdf', '/opt/xchem-fragalysis-2/maxwin/BulkDock/OUTPUTS/openbind_a71ev2a_c1_fragmenstein_1B07P1I.sdf', '/opt/xchem-fragalysis-2/maxwin/BulkDock/OUTPUTS/openbind_a71ev2a_c1_fragmenstein_1B07Y79.sdf', '/opt/xchem-fragalysis-2/maxwin/openbind-hippo/a71ev2a/openbind_a71ev2a_c1_scaffold_products.sdf', '/opt/xchem-fragalysis-2/maxwin/openbind-hippo/a71ev2a/cycle_01/bulkdock/openbind_a71ev2a_c1_scaffold_products.sdf', '/opt/xchem-fragalysis-2/maxwin/openbind-hippo/a71ev2a/cycle_01/bulkdock/openbind_a71ev2a_c1_scaffolds.sdf']

>  <fragmenstein_runtime>  (107) 
2.816456

$$$$
P87181
     RDKit          3D

 16 16  0  0  0  0  0  0  0  0999 V2000
    6.3672   14.9097   25.2137 C   0  0  0  0  0  0  0  0  0  0  0  0
    8.0256   14.8103   25.8415 S   0  0  0  0  0  0  0  0  0  0  0  0
    8.6230   16.1252   25.7133 O   0  0  0  0  0  0  0  0  0  0  0  0
    7.9298   14.2200   27.1638 O   0  0  0  0  0  0  0  0  0  0  0  0
    8.9294   13.6677   24.7524 C   0  0  2  0  0  0  0  0  0  0  0  0
    8.8535   14.0168   23.2563 C   0  0  0  0  0  0  0  0  0  0  0  0
    9.3154   15.4231   22.8416 C   0  0  0  0  0  0  0  0  0  0  0  0
   10.7260   15.8286   23.2838 C   0  0  0  0  0  0  0  0  0  0  0  0
   11.7153   14.9413   22.7654 O   0  0  0  0  0  0  0  0  0  0  0  0
   11.9500   15.3804   21.3930 O   0  0  0  0  0  0  0  0  0  0  0  0
    8.6550   12.1887   25.0937 C   0  0  1  0  0  0  0  0  0  0  0  0
    7.2787   11.7454   25.5705 C   0  0  0  0  0  0  0  0  0  0  0  0
    7.3453   10.3215   25.4764 N   0  0  0  0  0  0  0  0  0  0  0  0
    8.3106    9.9157   24.5777 C   0  0  0  0  0  0  0  0  0  0  0  0
    8.5366    8.7692   24.2542 O   0  0  0  0  0  0  0  0  0  0  0  0
    8.9924   11.1413   24.0388 C   0  0  0  0  0  0  0  0  0  0  0  0
  1  2  1  0
  2  3  2  0
  2  4  2  0
  2  5  1  0
  5  6  1  6
  6  7  1  0
  7  8  1  0
  8  9  1  0
  9 10  1  0
  5 11  1  0
 11 12  1  6
 12 13  1  0
 13 14  1  0
 14 15  2  0
 14 16  1  0
 16 11  1  0
M  END
>  <ref_pdb>  (108) 
A4541b

>  <subsites>  (108) 
1 - Active Site

>  <HIPPO Compound ID>  (108) 
203259

>  <energy_score>  (108) 
-52.276904

>  <fragmenstein_mode>  (108) 
expansion

>  <scratch_subdir>  (108) 
/opt/xchem-fragalysis-2/maxwin/BulkDock/SCRATCH/513041/C260673-P397

>  <smiles>  (108) 
CS(=O)(=O)[C@H](CCCOO)[C@H]1CNC(=O)C1

>  <alias>  (108) 
None

>  <ref_mols>  (108) 
A4877b,A4541b

>  <inspiration_score>  (108) 
None

>  <tags>  (108) 
openbind_a71ev2a_c1_fragmenstein,BulkDock Fragalysis export,fragmenstein_placed,openbind_a71ev2a_c1_scaffolds

>  <fragmenstein_outcome>  (108) 
acceptable

>  <fragmenstein_error>  (108) 


>  <distance_score>  (108) 
0.909469

>  <inchikey>  (108) 
FCAAAVKQVZHQHC-UHFFFAOYSA-N

>  <name>  (108) 
P87181

>  <HIPPO Pose ID>  (108) 
87181

>  <Energy>  (108) 
3.076799

>  <exports>  (108) 
['/opt/xchem-fragalysis-2/maxwin/BulkDock/OUTPUTS/openbind_a71ev2a_c1_fragmenstein_165VU4J.sdf', '/opt/xchem-fragalysis-2/maxwin/BulkDock/OUTPUTS/openbind_a71ev2a_c1_fragmenstein_1B07P1I.sdf', '/opt/xchem-fragalysis-2/maxwin/BulkDock/OUTPUTS/openbind_a71ev2a_c1_fragmenstein_1B07Y79.sdf', '/opt/xchem-fragalysis-2/maxwin/openbind-hippo/a71ev2a/openbind_a71ev2a_c1_scaffold_products.sdf', '/opt/xchem-fragalysis-2/maxwin/openbind-hippo/a71ev2a/cycle_01/bulkdock/openbind_a71ev2a_c1_scaffold_products.sdf', '/opt/xchem-fragalysis-2/maxwin/openbind-hippo/a71ev2a/cycle_01/bulkdock/openbind_a71ev2a_c1_scaffolds.sdf']

>  <fragmenstein_runtime>  (108) 
2.101845

$$$$
P89241
     RDKit          3D

 14 15  0  0  0  0  0  0  0  0999 V2000
    9.5927   10.5895   23.7925 C   0  0  0  0  0  0  0  0  0  0  0  0
    8.5368   10.5258   24.8623 C   0  0  0  0  0  0  0  0  0  0  0  0
    7.6758   11.7043   24.9256 N   0  0  0  0  0  0  0  0  0  0  0  0
    6.8630   11.7523   26.0762 C   0  0  0  0  0  0  0  0  0  0  0  0
    6.2334   10.6840   26.6942 C   0  0  0  0  0  0  0  0  0  0  0  0
    5.4377   10.9069   27.8190 C   0  0  0  0  0  0  0  0  0  0  0  0
    5.2822   12.2004   28.3248 C   0  0  0  0  0  0  0  0  0  0  0  0
    5.9056   13.2802   27.6989 C   0  0  0  0  0  0  0  0  0  0  0  0
    6.6822   13.0391   26.5739 C   0  0  0  0  0  0  0  0  0  0  0  0
    7.3937   14.0314   25.7049 C   0  0  2  0  0  0  0  0  0  0  0  0
    6.3945   14.9186   24.9640 C   0  0  0  0  0  0  0  0  0  0  0  0
    8.2505   13.0784   24.8219 C   0  0  2  0  0  0  0  0  0  0  0  0
    8.3217   13.5538   23.3737 C   0  0  0  0  0  0  0  0  0  0  0  0
    7.6207   13.1353   22.4536 O   0  0  0  0  0  0  0  0  0  0  0  0
  1  2  1  0
  2  3  1  0
  3  4  1  0
  4  5  2  0
  5  6  1  0
  6  7  2  0
  7  8  1  0
  8  9  2  0
  9 10  1  0
 10 11  1  6
 10 12  1  0
 12 13  1  6
 13 14  2  0
 12  3  1  0
  9  4  1  0
M  END
>  <ref_pdb>  (109) 
A4583b

>  <subsites>  (109) 
1 - Active Site

>  <HIPPO Compound ID>  (109) 
155426

>  <energy_score>  (109) 
-15.293847

>  <fragmenstein_mode>  (109) 
expansion

>  <scratch_subdir>  (109) 
/opt/xchem-fragalysis-2/maxwin/BulkDock/SCRATCH/513042/C153198-P411

>  <smiles>  (109) 
CCN1c2ccccc2[C@H](C)[C@@H]1C=O

>  <alias>  (109) 
None

>  <ref_mols>  (109) 
A4583b,A4883b

>  <inspiration_score>  (109) 
None

>  <tags>  (109) 
openbind_a71ev2a_c1_fragmenstein,BulkDock Fragalysis export,fragmenstein_placed,openbind_a71ev2a_c1_scaffolds

>  <fragmenstein_outcome>  (109) 
acceptable

>  <fragmenstein_error>  (109) 


>  <distance_score>  (109) 
0.771404

>  <inchikey>  (109) 
BUDYDGJIWBAUAH-UHFFFAOYSA-N

>  <name>  (109) 
P89241

>  <HIPPO Pose ID>  (109) 
89241

>  <Energy>  (109) 
65.005054

>  <exports>  (109) 
['/opt/xchem-fragalysis-2/maxwin/BulkDock/OUTPUTS/openbind_a71ev2a_c1_fragmenstein_165VU4J.sdf', '/opt/xchem-fragalysis-2/maxwin/BulkDock/OUTPUTS/openbind_a71ev2a_c1_fragmenstein_1B07P1I.sdf', '/opt/xchem-fragalysis-2/maxwin/BulkDock/OUTPUTS/openbind_a71ev2a_c1_fragmenstein_1B07Y79.sdf', '/opt/xchem-fragalysis-2/maxwin/openbind-hippo/a71ev2a/openbind_a71ev2a_c1_scaffold_products.sdf', '/opt/xchem-fragalysis-2/maxwin/openbind-hippo/a71ev2a/cycle_01/bulkdock/openbind_a71ev2a_c1_scaffold_products.sdf', '/opt/xchem-fragalysis-2/maxwin/openbind-hippo/a71ev2a/cycle_01/bulkdock/openbind_a71ev2a_c1_scaffolds.sdf']

>  <fragmenstein_runtime>  (109) 
1.223217

$$$$
P96790
     RDKit          3D

 12 11  0  0  0  0  0  0  0  0999 V2000
    5.4008   11.2329   26.7700 C   0  0  0  0  0  0  0  0  0  0  0  0
    6.3347   10.1010   26.3877 C   0  0  0  0  0  0  0  0  0  0  0  0
    6.8521   10.2062   25.0737 O   0  0  0  0  0  0  0  0  0  0  0  0
    8.0577   10.9407   24.9065 C   0  0  0  0  0  0  0  0  0  0  0  0
    7.9184   12.3795   25.3769 C   0  0  0  0  0  0  0  0  0  0  0  0
    9.0072   13.3232   24.8908 C   0  0  0  0  0  0  0  0  0  0  0  0
    9.0030   13.6233   23.3816 C   0  0  1  0  0  0  0  0  0  0  0  0
    7.6271   14.0197   22.8477 C   0  0  0  0  0  0  0  0  0  0  0  0
    9.9963   14.7423   23.0950 C   0  0  0  0  0  0  0  0  0  0  0  0
   11.2276   14.4218   23.5523 F   0  0  0  0  0  0  0  0  0  0  0  0
   10.0846   14.9973   21.7762 F   0  0  0  0  0  0  0  0  0  0  0  0
    9.6326   15.8898   23.7154 F   0  0  0  0  0  0  0  0  0  0  0  0
  1  2  1  0
  2  3  1  0
  3  4  1  0
  4  5  1  0
  5  6  1  0
  6  7  1  0
  7  8  1  1
  7  9  1  0
  9 10  1  0
  9 11  1  0
  9 12  1  0
M  END
>  <ref_pdb>  (110) 
A4774a

>  <subsites>  (110) 
1 - Active Site

>  <HIPPO Compound ID>  (110) 
148261

>  <energy_score>  (110) 
-9.262796

>  <fragmenstein_mode>  (110) 
expansion

>  <scratch_subdir>  (110) 
/opt/xchem-fragalysis-2/maxwin/BulkDock/SCRATCH/513044/C148261-P461

>  <smiles>  (110) 
CCOCCC[C@@H](C)C(F)(F)F

>  <alias>  (110) 
None

>  <ref_mols>  (110) 
A4032a,A4774a

>  <inspiration_score>  (110) 
None

>  <tags>  (110) 
openbind_a71ev2a_c1_fragmenstein,BulkDock Fragalysis export,fragmenstein_placed,openbind_a71ev2a_c1_scaffolds

>  <fragmenstein_outcome>  (110) 
acceptable

>  <fragmenstein_error>  (110) 


>  <distance_score>  (110) 
0.740835

>  <inchikey>  (110) 
QDCKVDNVBDQFNM-UHFFFAOYSA-N

>  <name>  (110) 
P96790

>  <HIPPO Pose ID>  (110) 
96790

>  <Energy>  (110) 
22.255557

>  <exports>  (110) 
['/opt/xchem-fragalysis-2/maxwin/BulkDock/OUTPUTS/openbind_a71ev2a_c1_fragmenstein_165VU4J.sdf', '/opt/xchem-fragalysis-2/maxwin/BulkDock/OUTPUTS/openbind_a71ev2a_c1_fragmenstein_1B07P1I.sdf', '/opt/xchem-fragalysis-2/maxwin/BulkDock/OUTPUTS/openbind_a71ev2a_c1_fragmenstein_1B07Y79.sdf', '/opt/xchem-fragalysis-2/maxwin/openbind-hippo/a71ev2a/openbind_a71ev2a_c1_scaffold_products.sdf', '/opt/xchem-fragalysis-2/maxwin/openbind-hippo/a71ev2a/cycle_01/bulkdock/openbind_a71ev2a_c1_scaffold_products.sdf', '/opt/xchem-fragalysis-2/maxwin/openbind-hippo/a71ev2a/cycle_01/bulkdock/openbind_a71ev2a_c1_scaffolds.sdf']

>  <fragmenstein_runtime>  (110) 
2.311015

$$$$
P98521
     RDKit          3D

 10  9  0  0  0  0  0  0  0  0999 V2000
    8.0978   14.5449   25.9353 C   0  0  0  0  0  0  0  0  0  0  0  0
    8.6109   13.3887   25.0717 C   0  0  1  0  0  0  0  0  0  0  0  0
    7.7094   12.1558   25.3121 C   0  0  0  0  0  0  0  0  0  0  0  0
    7.8712   10.9060   24.4472 C   0  0  0  0  0  0  0  0  0  0  0  0
    9.2780   10.4974   24.1163 C   0  0  0  0  0  0  0  0  0  0  0  0
    9.6590    9.3314   24.1303 O   0  0  0  0  0  0  0  0  0  0  0  0
    8.6784   13.8506   23.6187 C   0  0  0  0  0  0  0  0  0  0  0  0
    8.0817   13.2379   22.7329 O   0  0  0  0  0  0  0  0  0  0  0  0
    9.5462   15.0679   23.2995 C   0  0  0  0  0  0  0  0  0  0  0  0
   10.8783   14.9060   23.7627 O   0  0  0  0  0  0  0  0  0  0  0  0
  2  1  1  1
  2  3  1  0
  3  4  1  0
  4  5  1  0
  5  6  2  0
  2  7  1  0
  7  8  2  0
  7  9  1  0
  9 10  1  0
M  END
>  <ref_pdb>  (111) 
A4809a

>  <subsites>  (111) 
1 - Active Site

>  <HIPPO Compound ID>  (111) 
182169

>  <energy_score>  (111) 
-12.321866

>  <fragmenstein_mode>  (111) 
expansion

>  <scratch_subdir>  (111) 
/opt/xchem-fragalysis-2/maxwin/BulkDock/SCRATCH/513045/C182169-P471

>  <smiles>  (111) 
C[C@@H](CCC=O)C(=O)CO

>  <alias>  (111) 
None

>  <ref_mols>  (111) 
A4509a,A4809a

>  <inspiration_score>  (111) 
None

>  <tags>  (111) 
openbind_a71ev2a_c1_fragmenstein,BulkDock Fragalysis export,fragmenstein_placed,openbind_a71ev2a_c1_scaffolds

>  <fragmenstein_outcome>  (111) 
acceptable

>  <fragmenstein_error>  (111) 


>  <distance_score>  (111) 
0.839655

>  <inchikey>  (111) 
RUKKUCYHUKCBDF-UHFFFAOYSA-N

>  <name>  (111) 
P98521

>  <HIPPO Pose ID>  (111) 
98521

>  <Energy>  (111) 
33.086242

>  <exports>  (111) 
['/opt/xchem-fragalysis-2/maxwin/BulkDock/OUTPUTS/openbind_a71ev2a_c1_fragmenstein_165VU4J.sdf', '/opt/xchem-fragalysis-2/maxwin/BulkDock/OUTPUTS/openbind_a71ev2a_c1_fragmenstein_1B07P1I.sdf', '/opt/xchem-fragalysis-2/maxwin/BulkDock/OUTPUTS/openbind_a71ev2a_c1_fragmenstein_1B07Y79.sdf', '/opt/xchem-fragalysis-2/maxwin/openbind-hippo/a71ev2a/openbind_a71ev2a_c1_scaffold_products.sdf', '/opt/xchem-fragalysis-2/maxwin/openbind-hippo/a71ev2a/cycle_01/bulkdock/openbind_a71ev2a_c1_scaffold_products.sdf', '/opt/xchem-fragalysis-2/maxwin/openbind-hippo/a71ev2a/cycle_01/bulkdock/openbind_a71ev2a_c1_scaffolds.sdf']

>  <fragmenstein_runtime>  (111) 
1.433895

$$$$
P119597
     RDKit          3D

 11 10  0  0  0  0  0  0  0  0999 V2000
    5.3895   14.2075   25.6218 C   0  0  0  0  0  0  0  0  0  0  0  0
    6.6497   13.1331   26.3417 S   0  0  0  0  0  0  0  0  0  0  0  0
    7.2368   12.2539   24.8614 C   0  0  0  0  0  0  0  0  0  0  0  0
    7.7439   13.1476   23.7345 C   0  0  0  0  0  0  0  0  0  0  0  0
    9.1471   13.6646   24.0135 C   0  0  0  0  0  0  0  0  0  0  0  0
    9.6550   14.7093   23.0104 C   0  0  2  0  0  0  0  0  0  0  0  0
    9.3941   14.3875   21.5530 C   0  0  0  0  0  0  0  0  0  0  0  0
   11.3985   14.9611   23.3467 S   0  0  0  0  0  0  0  0  0  0  0  0
   11.9837   15.9801   22.0093 C   0  0  0  0  0  0  0  0  0  0  0  0
   11.4341   15.6933   24.6012 O   0  0  0  0  0  0  0  0  0  0  0  0
   12.1025   13.6986   23.2632 O   0  0  0  0  0  0  0  0  0  0  0  0
  1  2  1  0
  2  3  1  0
  3  4  1  0
  4  5  1  0
  5  6  1  0
  6  7  1  6
  6  8  1  0
  8  9  1  0
  8 10  2  0
  8 11  2  0
M  END
>  <ref_pdb>  (112) 
A5427a

>  <subsites>  (112) 
1 - Active Site

>  <HIPPO Compound ID>  (112) 
255845

>  <energy_score>  (112) 
-38.529097

>  <fragmenstein_mode>  (112) 
expansion

>  <scratch_subdir>  (112) 
/opt/xchem-fragalysis-2/maxwin/BulkDock/SCRATCH/513053/C255845-P619

>  <smiles>  (112) 
CSCCC[C@H](C)S(C)(=O)=O

>  <alias>  (112) 
None

>  <ref_mols>  (112) 
A5427a,A4928a

>  <inspiration_score>  (112) 
None

>  <tags>  (112) 
openbind_a71ev2a_c1_fragmenstein,BulkDock Fragalysis export,fragmenstein_placed,openbind_a71ev2a_c1_scaffolds

>  <fragmenstein_outcome>  (112) 
acceptable

>  <fragmenstein_error>  (112) 


>  <distance_score>  (112) 
0.979302

>  <inchikey>  (112) 
CPWFSKJMEDRRBR-UHFFFAOYSA-N

>  <name>  (112) 
P119597

>  <HIPPO Pose ID>  (112) 
119597

>  <Energy>  (112) 
16.642233

>  <exports>  (112) 
['/opt/xchem-fragalysis-2/maxwin/BulkDock/OUTPUTS/openbind_a71ev2a_c1_fragmenstein_165VU4J.sdf', '/opt/xchem-fragalysis-2/maxwin/BulkDock/OUTPUTS/openbind_a71ev2a_c1_fragmenstein_1B07P1I.sdf', '/opt/xchem-fragalysis-2/maxwin/BulkDock/OUTPUTS/openbind_a71ev2a_c1_fragmenstein_1B07Y79.sdf', '/opt/xchem-fragalysis-2/maxwin/openbind-hippo/a71ev2a/openbind_a71ev2a_c1_scaffold_products.sdf', '/opt/xchem-fragalysis-2/maxwin/openbind-hippo/a71ev2a/cycle_01/bulkdock/openbind_a71ev2a_c1_scaffold_products.sdf', '/opt/xchem-fragalysis-2/maxwin/openbind-hippo/a71ev2a/cycle_01/bulkdock/openbind_a71ev2a_c1_scaffolds.sdf']

>  <fragmenstein_runtime>  (112) 
4.363163

$$$$
P119965
     RDKit          3D

 14 13  0  0  0  0  0  0  0  0999 V2000
   12.3926   14.8088   25.2722 C   0  0  0  0  0  0  0  0  0  0  0  0
   11.6658   15.5473   24.1712 C   0  0  0  0  0  0  0  0  0  0  0  0
   12.3545   15.3517   22.8336 C   0  0  0  0  0  0  0  0  0  0  0  0
   11.5100   15.8224   21.6572 C   0  0  0  0  0  0  0  0  0  0  0  0
   10.4837   14.7751   21.2133 C   0  0  0  0  0  0  0  0  0  0  0  0
    9.0457   15.2788   21.2342 C   0  0  0  0  0  0  0  0  0  0  0  0
    8.3290   15.2439   22.5819 C   0  0  0  0  0  0  0  0  0  0  0  0
    7.9153   13.8446   23.0665 C   0  0  0  0  0  0  0  0  0  0  0  0
    8.7989   13.2934   24.1812 C   0  0  0  0  0  0  0  0  0  0  0  0
    8.1773   12.1758   25.0312 C   0  0  0  0  0  0  0  0  0  0  0  0
    7.9205   10.8498   24.3276 C   0  0  0  0  0  0  0  0  0  0  0  0
    9.0788   10.2593   23.5446 C   0  0  0  0  0  0  0  0  0  0  0  0
    6.8974   12.6058   25.7902 C   0  0  0  0  0  0  0  0  0  0  0  0
    6.9357   13.9926   26.4208 C   0  0  0  0  0  0  0  0  0  0  0  0
  1  2  1  0
  2  3  1  0
  3  4  1  0
  4  5  1  0
  5  6  1  0
  6  7  1  0
  7  8  1  0
  8  9  1  0
  9 10  1  0
 10 11  1  0
 11 12  1  0
 10 13  1  0
 13 14  1  0
M  END
>  <ref_pdb>  (113) 
A5460a

>  <subsites>  (113) 
1 - Active Site

>  <HIPPO Compound ID>  (113) 
256490

>  <energy_score>  (113) 
-34.382495

>  <fragmenstein_mode>  (113) 
expansion

>  <scratch_subdir>  (113) 
/opt/xchem-fragalysis-2/maxwin/BulkDock/SCRATCH/513053/C256490-P622

>  <smiles>  (113) 
CCCCCCCCCC(CC)CC

>  <alias>  (113) 
None

>  <ref_mols>  (113) 
A3510a,A5460a

>  <inspiration_score>  (113) 
None

>  <tags>  (113) 
openbind_a71ev2a_c1_fragmenstein,BulkDock Fragalysis export,fragmenstein_placed,openbind_a71ev2a_c1_scaffolds

>  <fragmenstein_outcome>  (113) 
acceptable

>  <fragmenstein_error>  (113) 


>  <distance_score>  (113) 
0.936966

>  <inchikey>  (113) 
RPDFRSKJKOQCIT-UHFFFAOYSA-N

>  <name>  (113) 
P119965

>  <HIPPO Pose ID>  (113) 
119965

>  <Energy>  (113) 
18.477187

>  <exports>  (113) 
['/opt/xchem-fragalysis-2/maxwin/BulkDock/OUTPUTS/openbind_a71ev2a_c1_fragmenstein_165VU4J.sdf', '/opt/xchem-fragalysis-2/maxwin/BulkDock/OUTPUTS/openbind_a71ev2a_c1_fragmenstein_1B07P1I.sdf', '/opt/xchem-fragalysis-2/maxwin/BulkDock/OUTPUTS/openbind_a71ev2a_c1_fragmenstein_1B07Y79.sdf', '/opt/xchem-fragalysis-2/maxwin/openbind-hippo/a71ev2a/openbind_a71ev2a_c1_scaffold_products.sdf', '/opt/xchem-fragalysis-2/maxwin/openbind-hippo/a71ev2a/cycle_01/bulkdock/openbind_a71ev2a_c1_scaffold_products.sdf', '/opt/xchem-fragalysis-2/maxwin/openbind-hippo/a71ev2a/cycle_01/bulkdock/openbind_a71ev2a_c1_scaffolds.sdf']

>  <fragmenstein_runtime>  (113) 
7.686129

$$$$
P119976
     RDKit          3D

 11 12  0  0  0  0  0  0  0  0999 V2000
    5.8615   12.3958   26.5863 C   0  0  0  0  0  0  0  0  0  0  0  0
    6.9365   12.9370   25.6864 C   0  0  0  0  0  0  0  0  0  0  0  0
    7.1163   14.3274   25.6077 C   0  0  0  0  0  0  0  0  0  0  0  0
    8.0909   14.8730   24.7780 C   0  0  0  0  0  0  0  0  0  0  0  0
    8.9015   14.0364   24.0170 C   0  0  0  0  0  0  0  0  0  0  0  0
    8.7472   12.6450   24.0768 C   0  0  0  0  0  0  0  0  0  0  0  0
    9.5628   11.8130   23.2998 C   0  0  0  0  0  0  0  0  0  0  0  0
    9.4134   10.4284   23.3384 C   0  0  0  0  0  0  0  0  0  0  0  0
    8.4588    9.8581   24.1630 C   0  0  0  0  0  0  0  0  0  0  0  0
    7.6385   10.6703   24.9431 C   0  0  0  0  0  0  0  0  0  0  0  0
    7.7581   12.0758   24.9169 C   0  0  0  0  0  0  0  0  0  0  0  0
  1  2  1  0
  2  3  2  0
  3  4  1  0
  4  5  2  0
  5  6  1  0
  6  7  2  0
  7  8  1  0
  8  9  2  0
  9 10  1  0
 10 11  2  0
 11  2  1  0
 11  6  1  0
M  END
>  <ref_pdb>  (114) 
A5460a

>  <subsites>  (114) 
1 - Active Site

>  <HIPPO Compound ID>  (114) 
256517

>  <energy_score>  (114) 
-8.250726

>  <fragmenstein_mode>  (114) 
expansion

>  <scratch_subdir>  (114) 
/opt/xchem-fragalysis-2/maxwin/BulkDock/SCRATCH/513053/C256517-P622

>  <smiles>  (114) 
Cc1cccc2ccccc12

>  <alias>  (114) 
None

>  <ref_mols>  (114) 
A3956a,A5460a

>  <inspiration_score>  (114) 
None

>  <tags>  (114) 
openbind_a71ev2a_c1_fragmenstein,BulkDock Fragalysis export,fragmenstein_placed,openbind_a71ev2a_c1_scaffolds

>  <fragmenstein_outcome>  (114) 
acceptable

>  <fragmenstein_error>  (114) 


>  <distance_score>  (114) 
0.658235

>  <inchikey>  (114) 
QPUYECUOLPXSFR-UHFFFAOYSA-N

>  <name>  (114) 
P119976

>  <HIPPO Pose ID>  (114) 
119976

>  <Energy>  (114) 
36.026073

>  <exports>  (114) 
['/opt/xchem-fragalysis-2/maxwin/BulkDock/OUTPUTS/openbind_a71ev2a_c1_fragmenstein_165VU4J.sdf', '/opt/xchem-fragalysis-2/maxwin/BulkDock/OUTPUTS/openbind_a71ev2a_c1_fragmenstein_1B07P1I.sdf', '/opt/xchem-fragalysis-2/maxwin/BulkDock/OUTPUTS/openbind_a71ev2a_c1_fragmenstein_1B07Y79.sdf', '/opt/xchem-fragalysis-2/maxwin/openbind-hippo/a71ev2a/openbind_a71ev2a_c1_scaffold_products.sdf', '/opt/xchem-fragalysis-2/maxwin/openbind-hippo/a71ev2a/cycle_01/bulkdock/openbind_a71ev2a_c1_scaffold_products.sdf', '/opt/xchem-fragalysis-2/maxwin/openbind-hippo/a71ev2a/cycle_01/bulkdock/openbind_a71ev2a_c1_scaffolds.sdf']

>  <fragmenstein_runtime>  (114) 
0.909366

$$$$
C45982-P611
     RDKit          3D

 23 26  0  0  0  0  0  0  0  0999 V2000
    7.9411   13.5581   22.4202 O   0  0  0  0  0  0  0  0  0  0  0  0
    8.0980   14.1460   23.7346 S   0  0  0  0  0  0  0  0  0  0  0  0
    6.9338   14.6988   24.4041 O   0  0  0  0  0  0  0  0  0  0  0  0
    9.3033   15.4832   23.7753 C   0  0  1  0  0  0  0  0  0  0  0  0
   10.6010   15.2925   24.5740 C   0  0  0  0  0  0  0  0  0  0  0  0
   11.8078   14.8196   23.7626 C   0  0  0  0  0  0  0  0  0  0  0  0
   11.9240   15.5553   22.4385 C   0  0  0  0  0  0  0  0  0  0  0  0
   10.6641   15.4037   21.7559 N   0  0  0  0  0  0  0  0  0  0  0  0
   10.6532   15.4961   20.4188 C   0  0  0  0  0  0  0  0  0  0  0  0
    9.5938   15.6219   19.6722 N   0  0  0  0  0  0  0  0  0  0  0  0
   10.0871   15.6834   18.4194 C   0  0  0  0  0  0  0  0  0  0  0  0
   11.4475   15.6182   18.4520 C   0  0  0  0  0  0  0  0  0  0  0  0
   11.8312   15.5046   19.7434 O   0  0  0  0  0  0  0  0  0  0  0  0
    9.5094   16.0368   22.3857 C   0  0  0  0  0  0  0  0  0  0  0  0
    8.7778   12.9371   24.7360 N   0  0  0  0  0  0  0  0  0  0  0  0
    9.7754   12.0423   24.0378 C   0  0  0  0  0  0  0  0  0  0  0  0
    9.1869   10.6271   23.9920 C   0  0  0  0  0  0  0  0  0  0  0  0
    8.0176   10.7469   24.9023 C   0  0  0  0  0  0  0  0  0  0  0  0
    7.1590    9.7459   25.3043 C   0  0  0  0  0  0  0  0  0  0  0  0
    6.0840   10.0712   26.1343 C   0  0  0  0  0  0  0  0  0  0  0  0
    5.8879   11.3878   26.5619 C   0  0  0  0  0  0  0  0  0  0  0  0
    6.7603   12.3918   26.1500 C   0  0  0  0  0  0  0  0  0  0  0  0
    7.8021   12.0553   25.3017 C   0  0  0  0  0  0  0  0  0  0  0  0
  1  2  2  0
  2  3  2  0
  4  2  1  6
  4  5  1  0
  5  6  1  0
  6  7  1  0
  7  8  1  0
  8  9  1  0
  9 10  2  0
 10 11  1  0
 11 12  2  0
 12 13  1  0
  8 14  1  0
  2 15  1  0
 15 16  1  0
 16 17  1  0
 17 18  1  0
 18 19  2  0
 19 20  1  0
 20 21  2  0
 21 22  1  0
 22 23  2  0
 14  4  1  0
 23 15  1  0
 13  9  1  0
 23 18  1  0
M  END
>  <ref_pdb>  (115) 
A5393a

>  <subsites>  (115) 
1 - Active Site

>  <HIPPO Compound ID>  (115) 
47038

>  <energy_score>  (115) 
-61.135087

>  <fragmenstein_mode>  (115) 
expansion

>  <scratch_subdir>  (115) 
/opt/xchem-fragalysis-2/maxwin/BulkDock/SCRATCH/512156/C45982-P611

>  <smiles>  (115) 
O=S(=O)([C@H]1CCCN(c2ncco2)C1)N1CCc2ccccc21

>  <alias>  (115) 
C45982-P611

>  <ref_mols>  (115) 
A3623a,A5393a

>  <inspiration_score>  (115) 
None

>  <tags>  (115) 
BulkDock Fragalysis export,fragmenstein_placed,openbind_a71ev2a_c1_scaffolds,openbind_a71ev2a_c1_knitwork_pure

>  <fragmenstein_outcome>  (115) 
acceptable

>  <fragmenstein_error>  (115) 


>  <distance_score>  (115) 
0.997827

>  <inchikey>  (115) 
QXILYQDWBQFOGE-UHFFFAOYSA-N

>  <name>  (115) 
C45982-P611

>  <HIPPO Pose ID>  (115) 
123616

>  <Energy>  (115) 
-36.665237

>  <exports>  (115) 
['/opt/xchem-fragalysis-2/maxwin/BulkDock/OUTPUTS/openbind_a71ev2a_c1_knitwork_pure_165VWF8.sdf', '/opt/xchem-fragalysis-2/maxwin/BulkDock/OUTPUTS/openbind_a71ev2a_c1_knitwork_pure_1B07PTU.sdf', '/opt/xchem-fragalysis-2/maxwin/BulkDock/OUTPUTS/openbind_a71ev2a_c1_knitwork_pure_1B07UWE.sdf', '/opt/xchem-fragalysis-2/maxwin/openbind-hippo/a71ev2a/openbind_a71ev2a_c1_scaffold_products.sdf', '/opt/xchem-fragalysis-2/maxwin/openbind-hippo/a71ev2a/cycle_01/bulkdock/openbind_a71ev2a_c1_scaffold_products.sdf', '/opt/xchem-fragalysis-2/maxwin/openbind-hippo/a71ev2a/cycle_01/bulkdock/openbind_a71ev2a_c1_scaffolds.sdf']

>  <fragmenstein_runtime>  (115) 
56.498479

$$$$
C33321-P170
     RDKit          3D

 14 15  0  0  0  0  0  0  0  0999 V2000
    7.0381   10.3908   25.8630 O   0  0  0  0  0  0  0  0  0  0  0  0
    7.8008   10.8530   25.0216 C   0  0  0  0  0  0  0  0  0  0  0  0
    8.5970    9.9524   24.1295 C   0  0  0  0  0  0  0  0  0  0  0  0
    9.7349   10.5535   23.3501 C   0  0  0  0  0  0  0  0  0  0  0  0
    9.9206   12.0573   23.4739 C   0  0  0  0  0  0  0  0  0  0  0  0
    8.6138   12.7964   23.7398 C   0  0  2  0  0  0  0  0  0  0  0  0
    8.8591   14.3007   23.9581 C   0  0  0  0  0  0  0  0  0  0  0  0
    9.1050   14.9406   22.7137 O   0  0  0  0  0  0  0  0  0  0  0  0
   10.3906   15.1247   22.3568 C   0  0  0  0  0  0  0  0  0  0  0  0
   10.8366   15.3382   21.0406 C   0  0  0  0  0  0  0  0  0  0  0  0
   12.1571   15.5066   20.9876 N   0  0  0  0  0  0  0  0  0  0  0  0
   12.5415   15.4569   22.2676 N   0  0  0  0  0  0  0  0  0  0  0  0
   11.5188   15.1971   23.1397 C   0  0  0  0  0  0  0  0  0  0  0  0
    7.9427   12.1974   24.8779 N   0  0  0  0  0  0  0  0  0  0  0  0
  1  2  2  0
  2  3  1  0
  3  4  1  0
  4  5  1  0
  5  6  1  0
  6  7  1  1
  7  8  1  0
  8  9  1  0
  9 10  1  0
 10 11  2  0
 11 12  1  0
 12 13  1  0
  6 14  1  0
 14  2  1  0
 13  9  2  0
M  END
>  <ref_pdb>  (116) 
A3579a

>  <subsites>  (116) 
1 - Active Site

>  <HIPPO Compound ID>  (116) 
62872

>  <energy_score>  (116) 
-33.561941

>  <fragmenstein_mode>  (116) 
expansion

>  <scratch_subdir>  (116) 
/opt/xchem-fragalysis-2/maxwin/BulkDock/SCRATCH/512156/C33321-P170

>  <smiles>  (116) 
O=C1CCC[C@H](COc2cn[nH]c2)N1

>  <alias>  (116) 
C33321-P170

>  <ref_mols>  (116) 
A3579a,A0556a

>  <inspiration_score>  (116) 
None

>  <tags>  (116) 
BulkDock Fragalysis export,fragmenstein_placed,openbind_a71ev2a_c1_scaffolds,openbind_a71ev2a_c1_knitwork_pure

>  <fragmenstein_outcome>  (116) 
acceptable

>  <fragmenstein_error>  (116) 


>  <distance_score>  (116) 
0.81618

>  <inchikey>  (116) 
QYUCNRDAJOKRPK-UHFFFAOYSA-N

>  <name>  (116) 
C33321-P170

>  <HIPPO Pose ID>  (116) 
123821

>  <Energy>  (116) 
15.240541

>  <exports>  (116) 
['/opt/xchem-fragalysis-2/maxwin/BulkDock/OUTPUTS/openbind_a71ev2a_c1_knitwork_pure_165VWF8.sdf', '/opt/xchem-fragalysis-2/maxwin/BulkDock/OUTPUTS/openbind_a71ev2a_c1_knitwork_pure_1B07PTU.sdf', '/opt/xchem-fragalysis-2/maxwin/BulkDock/OUTPUTS/openbind_a71ev2a_c1_knitwork_pure_1B07UWE.sdf', '/opt/xchem-fragalysis-2/maxwin/openbind-hippo/a71ev2a/openbind_a71ev2a_c1_scaffold_products.sdf', '/opt/xchem-fragalysis-2/maxwin/openbind-hippo/a71ev2a/cycle_01/bulkdock/openbind_a71ev2a_c1_scaffold_products.sdf', '/opt/xchem-fragalysis-2/maxwin/openbind-hippo/a71ev2a/cycle_01/bulkdock/openbind_a71ev2a_c1_scaffolds.sdf']

>  <fragmenstein_runtime>  (116) 
4.230366

$$$$
C46327-P296
     RDKit          3D

 18 20  0  0  0  0  0  0  0  0999 V2000
    8.1883   10.7972   24.7059 C   0  0  0  0  0  0  0  0  0  0  0  0
    7.9693   12.1672   24.8501 C   0  0  0  0  0  0  0  0  0  0  0  0
    7.0351   12.6730   25.7738 C   0  0  0  0  0  0  0  0  0  0  0  0
    6.8396   14.1595   25.9337 C   0  0  0  0  0  0  0  0  0  0  0  0
    5.5827   14.4917   26.6314 N   0  0  0  0  0  0  0  0  0  0  0  0
    5.4071   15.9527   26.7456 C   0  0  0  0  0  0  0  0  0  0  0  0
    6.4370   16.6826   27.6308 C   0  0  1  0  0  0  0  0  0  0  0  0
    6.1462   18.1880   27.6739 C   0  0  0  0  0  0  0  0  0  0  0  0
    7.1774   18.9296   28.5322 C   0  0  0  0  0  0  0  0  0  0  0  0
    7.9576   18.0079   29.4712 C   0  0  0  0  0  0  0  0  0  0  0  0
    7.0765   17.0084   30.0597 N   0  0  0  0  0  0  0  0  0  0  0  0
    6.4764   16.1138   29.0630 C   0  0  0  0  0  0  0  0  0  0  0  0
    6.3746   11.7148   26.5537 C   0  0  0  0  0  0  0  0  0  0  0  0
    5.4573   11.8805   27.5609 N   0  0  0  0  0  0  0  0  0  0  0  0
    5.0037   10.7328   28.0855 N   0  0  0  0  0  0  0  0  0  0  0  0
    5.6605    9.8074   27.3813 C   0  0  0  0  0  0  0  0  0  0  0  0
    6.5507   10.3485   26.4244 C   0  0  0  0  0  0  0  0  0  0  0  0
    7.4745    9.8731   25.4790 C   0  0  0  0  0  0  0  0  0  0  0  0
  1  2  2  0
  2  3  1  0
  3  4  1  0
  4  5  1  0
  5  6  1  0
  7  6  1  6
  7  8  1  0
  8  9  1  0
  9 10  1  0
 10 11  1  0
 11 12  1  0
  3 13  2  0
 13 14  1  0
 14 15  1  0
 15 16  2  0
 16 17  1  0
 17 18  2  0
 18  1  1  0
 12  7  1  0
 17 13  1  0
M  END
>  <ref_pdb>  (117) 
A4311a

>  <subsites>  (117) 
1 - Active Site,6 - A0486/A/147/1

>  <HIPPO Compound ID>  (117) 
46503

>  <energy_score>  (117) 
-28.134818

>  <fragmenstein_mode>  (117) 
expansion

>  <scratch_subdir>  (117) 
/opt/xchem-fragalysis-2/maxwin/BulkDock/SCRATCH/512156/C46327-P296

>  <smiles>  (117) 
c1cc(CNC[C@H]2CCCNC2)c2[nH]ncc2c1

>  <alias>  (117) 
C46327-P296

>  <ref_mols>  (117) 
A4311a,A0486a

>  <inspiration_score>  (117) 
None

>  <tags>  (117) 
BulkDock Fragalysis export,fragmenstein_placed,openbind_a71ev2a_c1_scaffolds,openbind_a71ev2a_c1_knitwork_pure

>  <fragmenstein_outcome>  (117) 
acceptable

>  <fragmenstein_error>  (117) 


>  <distance_score>  (117) 
0.818822

>  <inchikey>  (117) 
FQPQQAXCJVPZKB-UHFFFAOYSA-N

>  <name>  (117) 
C46327-P296

>  <HIPPO Pose ID>  (117) 
125932

>  <Energy>  (117) 
31.695229

>  <exports>  (117) 
['/opt/xchem-fragalysis-2/maxwin/BulkDock/OUTPUTS/openbind_a71ev2a_c1_knitwork_pure_165VWF8.sdf', '/opt/xchem-fragalysis-2/maxwin/BulkDock/OUTPUTS/openbind_a71ev2a_c1_knitwork_pure_1B07PTU.sdf', '/opt/xchem-fragalysis-2/maxwin/BulkDock/OUTPUTS/openbind_a71ev2a_c1_knitwork_pure_1B07UWE.sdf', '/opt/xchem-fragalysis-2/maxwin/openbind-hippo/a71ev2a/openbind_a71ev2a_c1_scaffold_products.sdf', '/opt/xchem-fragalysis-2/maxwin/openbind-hippo/a71ev2a/cycle_01/bulkdock/openbind_a71ev2a_c1_scaffold_products.sdf', '/opt/xchem-fragalysis-2/maxwin/openbind-hippo/a71ev2a/cycle_01/bulkdock/openbind_a71ev2a_c1_scaffolds.sdf']

>  <fragmenstein_runtime>  (117) 
6.711571

$$$$
C97401-P9
     RDKit          3D

 21 23  0  0  0  0  0  0  0  0999 V2000
   26.3620   10.7077    1.1225 C   0  0  0  0  0  0  0  0  0  0  0  0
   27.0516   11.7116    1.9473 C   0  0  0  0  0  0  0  0  0  0  0  0
   28.4064   11.6126    2.1691 N   0  0  0  0  0  0  0  0  0  0  0  0
   28.7852   12.6542    2.9518 C   0  0  0  0  0  0  0  0  0  0  0  0
   27.7665   13.4143    3.2682 N   0  0  0  0  0  0  0  0  0  0  0  0
   26.6535   12.8306    2.6712 C   0  0  0  0  0  0  0  0  0  0  0  0
   25.0447   13.4760    2.9284 S   0  0  0  0  0  0  0  0  0  0  0  0
   25.1238   14.8930    2.6548 O   0  0  0  0  0  0  0  0  0  0  0  0
   24.6277   12.9620    4.2103 O   0  0  0  0  0  0  0  0  0  0  0  0
   23.9510   12.8220    1.8085 N   0  0  0  0  0  0  0  0  0  0  0  0
   22.7147   13.6181    1.5563 C   0  0  0  0  0  0  0  0  0  0  0  0
   22.0059   14.0918    2.8204 C   0  0  0  0  0  0  0  0  0  0  0  0
   20.5997   14.3721    2.5845 N   0  0  0  0  0  0  0  0  0  0  0  0
   19.6808   13.3862    2.7490 N   0  0  0  0  0  0  0  0  0  0  0  0
   18.5170   14.0166    2.5723 C   0  0  0  0  0  0  0  0  0  0  0  0
   18.6758   15.3816    2.2522 C   0  0  0  0  0  0  0  0  0  0  0  0
   17.8168   16.4585    1.9750 C   0  0  0  0  0  0  0  0  0  0  0  0
   18.3752   17.7094    1.6868 C   0  0  0  0  0  0  0  0  0  0  0  0
   19.7579   17.8898    1.6767 C   0  0  0  0  0  0  0  0  0  0  0  0
   20.6272   16.8318    1.9567 C   0  0  0  0  0  0  0  0  0  0  0  0
   20.0528   15.5858    2.2423 C   0  0  0  0  0  0  0  0  0  0  0  0
  1  2  1  0
  2  3  1  0
  3  4  1  0
  4  5  2  0
  5  6  1  0
  6  7  1  0
  7  8  2  0
  7  9  2  0
  7 10  1  0
 10 11  1  0
 11 12  1  0
 12 13  1  0
 13 14  1  0
 14 15  2  0
 15 16  1  0
 16 17  2  0
 17 18  1  0
 18 19  2  0
 19 20  1  0
 20 21  2  0
  6  2  2  0
 21 13  1  0
 21 16  1  0
M  END
>  <ref_pdb>  (118) 
A0486a

>  <subsites>  (118) 
6 - A0486/A/147/1

>  <HIPPO Compound ID>  (118) 
58344

>  <energy_score>  (118) 
-389.534346

>  <fragmenstein_mode>  (118) 
expansion

>  <scratch_subdir>  (118) 
/opt/xchem-fragalysis-2/maxwin/BulkDock/SCRATCH/512156/C97401-P9

>  <smiles>  (118) 
Cc1[nH]cnc1S(=O)(=O)NCCn1ncc2ccccc21

>  <alias>  (118) 
C97401-P9

>  <ref_mols>  (118) 
A0486a,A0309a

>  <inspiration_score>  (118) 
None

>  <tags>  (118) 
BulkDock Fragalysis export,fragmenstein_placed,openbind_a71ev2a_c1_scaffolds,openbind_a71ev2a_c1_knitwork_pure

>  <fragmenstein_outcome>  (118) 
acceptable

>  <fragmenstein_error>  (118) 


>  <distance_score>  (118) 
0.843548

>  <inchikey>  (118) 
OHHKZZFRRXZMSR-UHFFFAOYSA-N

>  <name>  (118) 
C97401-P9

>  <HIPPO Pose ID>  (118) 
126428

>  <Energy>  (118) 
57.272144

>  <exports>  (118) 
['/opt/xchem-fragalysis-2/maxwin/BulkDock/OUTPUTS/openbind_a71ev2a_c1_knitwork_pure_165VWF8.sdf', '/opt/xchem-fragalysis-2/maxwin/BulkDock/OUTPUTS/openbind_a71ev2a_c1_knitwork_pure_1B07PTU.sdf', '/opt/xchem-fragalysis-2/maxwin/BulkDock/OUTPUTS/openbind_a71ev2a_c1_knitwork_pure_1B07UWE.sdf', '/opt/xchem-fragalysis-2/maxwin/openbind-hippo/a71ev2a/openbind_a71ev2a_c1_scaffold_products.sdf', '/opt/xchem-fragalysis-2/maxwin/openbind-hippo/a71ev2a/cycle_01/bulkdock/openbind_a71ev2a_c1_scaffold_products.sdf', '/opt/xchem-fragalysis-2/maxwin/openbind-hippo/a71ev2a/cycle_01/bulkdock/openbind_a71ev2a_c1_scaffolds.sdf']

>  <fragmenstein_runtime>  (118) 
2.337416

$$$$
C97404-P9
     RDKit          3D

 19 21  0  0  0  0  0  0  0  0999 V2000
   25.2760   14.5822    3.2372 C   0  0  0  0  0  0  0  0  0  0  0  0
   25.1418   13.6256    2.0583 C   0  0  2  0  0  0  0  0  0  0  0  0
   23.8975   12.8690    2.0761 N   0  0  0  0  0  0  0  0  0  0  0  0
   22.6975   13.5854    1.6643 C   0  0  0  0  0  0  0  0  0  0  0  0
   21.9336   14.1095    2.8742 C   0  0  0  0  0  0  0  0  0  0  0  0
   20.5349   14.3773    2.5896 N   0  0  0  0  0  0  0  0  0  0  0  0
   19.6073   13.4044    2.7797 N   0  0  0  0  0  0  0  0  0  0  0  0
   18.4490   14.0353    2.5776 C   0  0  0  0  0  0  0  0  0  0  0  0
   18.6172   15.3947    2.2392 C   0  0  0  0  0  0  0  0  0  0  0  0
   17.7657   16.4728    1.9448 C   0  0  0  0  0  0  0  0  0  0  0  0
   18.3319   17.7169    1.6424 C   0  0  0  0  0  0  0  0  0  0  0  0
   19.7154   17.8896    1.6335 C   0  0  0  0  0  0  0  0  0  0  0  0
   20.5773   16.8301    1.9294 C   0  0  0  0  0  0  0  0  0  0  0  0
   19.9953   15.5909    2.2301 C   0  0  0  0  0  0  0  0  0  0  0  0
   26.2905   12.6498    2.0185 C   0  0  0  0  0  0  0  0  0  0  0  0
   27.1265   12.3571    0.9584 C   0  0  0  0  0  0  0  0  0  0  0  0
   28.0542   11.4854    1.4544 N   0  0  0  0  0  0  0  0  0  0  0  0
   27.7513   11.2648    2.7626 C   0  0  0  0  0  0  0  0  0  0  0  0
   26.6822   11.9309    3.1274 N   0  0  0  0  0  0  0  0  0  0  0  0
  2  1  1  1
  2  3  1  0
  3  4  1  0
  4  5  1  0
  5  6  1  0
  6  7  1  0
  7  8  2  0
  8  9  1  0
  9 10  2  0
 10 11  1  0
 11 12  2  0
 12 13  1  0
 13 14  2  0
  2 15  1  0
 15 16  2  0
 16 17  1  0
 17 18  1  0
 18 19  2  0
 14  6  1  0
 19 15  1  0
 14  9  1  0
M  END
>  <ref_pdb>  (119) 
A0486a

>  <subsites>  (119) 
6 - A0486/A/147/1

>  <HIPPO Compound ID>  (119) 
97404

>  <energy_score>  (119) 
-22.444724

>  <fragmenstein_mode>  (119) 
expansion

>  <scratch_subdir>  (119) 
/opt/xchem-fragalysis-2/maxwin/BulkDock/SCRATCH/512156/C97404-P9

>  <smiles>  (119) 
C[C@H](NCCn1ncc2ccccc21)c1c[nH]cn1

>  <alias>  (119) 
C97404-P9

>  <ref_mols>  (119) 
A0486a,A0309a

>  <inspiration_score>  (119) 
None

>  <tags>  (119) 
BulkDock Fragalysis export,fragmenstein_placed,openbind_a71ev2a_c1_scaffolds,openbind_a71ev2a_c1_knitwork_pure

>  <fragmenstein_outcome>  (119) 
acceptable

>  <fragmenstein_error>  (119) 


>  <distance_score>  (119) 
0.802756

>  <inchikey>  (119) 
FZJDHRNIVCAVDC-UHFFFAOYSA-N

>  <name>  (119) 
C97404-P9

>  <HIPPO Pose ID>  (119) 
126434

>  <Energy>  (119) 
60.346893

>  <exports>  (119) 
['/opt/xchem-fragalysis-2/maxwin/BulkDock/OUTPUTS/openbind_a71ev2a_c1_knitwork_pure_165VWF8.sdf', '/opt/xchem-fragalysis-2/maxwin/BulkDock/OUTPUTS/openbind_a71ev2a_c1_knitwork_pure_1B07PTU.sdf', '/opt/xchem-fragalysis-2/maxwin/BulkDock/OUTPUTS/openbind_a71ev2a_c1_knitwork_pure_1B07UWE.sdf', '/opt/xchem-fragalysis-2/maxwin/openbind-hippo/a71ev2a/openbind_a71ev2a_c1_scaffold_products.sdf', '/opt/xchem-fragalysis-2/maxwin/openbind-hippo/a71ev2a/cycle_01/bulkdock/openbind_a71ev2a_c1_scaffold_products.sdf', '/opt/xchem-fragalysis-2/maxwin/openbind-hippo/a71ev2a/cycle_01/bulkdock/openbind_a71ev2a_c1_scaffolds.sdf']

>  <fragmenstein_runtime>  (119) 
1.874362

$$$$
C132369-P220
     RDKit          3D

 21 23  0  0  0  0  0  0  0  0999 V2000
    9.7150   10.0184   23.1173 C   0  0  0  0  0  0  0  0  0  0  0  0
    8.9044   10.8294   24.0556 C   0  0  0  0  0  0  0  0  0  0  0  0
    7.7504   10.3001   24.5719 N   0  0  0  0  0  0  0  0  0  0  0  0
    7.1632   11.1802   25.4394 C   0  0  0  0  0  0  0  0  0  0  0  0
    6.0146   11.0362   26.2194 C   0  0  0  0  0  0  0  0  0  0  0  0
    5.6124   12.1249   26.9923 C   0  0  0  0  0  0  0  0  0  0  0  0
    6.3341   13.3131   26.9806 C   0  0  0  0  0  0  0  0  0  0  0  0
    7.4950   13.4313   26.2125 C   0  0  0  0  0  0  0  0  0  0  0  0
    7.9331   12.3368   25.4381 C   0  0  0  0  0  0  0  0  0  0  0  0
    9.0899   12.0847   24.6322 C   0  0  0  0  0  0  0  0  0  0  0  0
   10.2409   12.9827   24.5234 C   0  0  0  0  0  0  0  0  0  0  0  0
   10.4662   13.9096   25.2979 O   0  0  0  0  0  0  0  0  0  0  0  0
   11.0932   12.7085   23.4972 O   0  0  0  0  0  0  0  0  0  0  0  0
   10.6863   13.5075   22.3991 C   0  0  0  0  0  0  0  0  0  0  0  0
   11.8581   13.8924   21.4850 C   0  0  0  0  0  0  0  0  0  0  0  0
   11.3057   14.9560   20.6061 C   0  0  0  0  0  0  0  0  0  0  0  0
   10.7379   14.7785   19.3760 C   0  0  0  0  0  0  0  0  0  0  0  0
    9.8349   15.7250   18.9194 C   0  0  0  0  0  0  0  0  0  0  0  0
    9.6164   16.8763   19.6491 C   0  0  0  0  0  0  0  0  0  0  0  0
   10.2330   17.1154   20.7980 N   0  0  0  0  0  0  0  0  0  0  0  0
   11.0775   16.1601   21.2107 C   0  0  0  0  0  0  0  0  0  0  0  0
  1  2  1  0
  2  3  1  0
  3  4  1  0
  4  5  2  0
  5  6  1  0
  6  7  2  0
  7  8  1  0
  8  9  2  0
  9 10  1  0
 10 11  1  0
 11 12  2  0
 11 13  1  0
 13 14  1  0
 14 15  1  0
 15 16  1  0
 16 17  2  0
 17 18  1  0
 18 19  2  0
 19 20  1  0
 20 21  2  0
 10  2  2  0
 21 16  1  0
  9  4  1  0
M  END
>  <ref_pdb>  (120) 
A3568a

>  <subsites>  (120) 
1 - Active Site

>  <HIPPO Compound ID>  (120) 
48528

>  <energy_score>  (120) 
-4.356648

>  <fragmenstein_mode>  (120) 
expansion

>  <scratch_subdir>  (120) 
/opt/xchem-fragalysis-2/maxwin/BulkDock/SCRATCH/512156/C132369-P220

>  <smiles>  (120) 
Cc1[nH]c2ccccc2c1C(=O)OCCc1cccnc1

>  <alias>  (120) 
C132369-P220

>  <ref_mols>  (120) 
A3568a,A2629a

>  <inspiration_score>  (120) 
None

>  <tags>  (120) 
BulkDock Fragalysis export,fragmenstein_placed,openbind_a71ev2a_c1_scaffolds,openbind_a71ev2a_c1_knitwork_pure

>  <fragmenstein_outcome>  (120) 
acceptable

>  <fragmenstein_error>  (120) 


>  <distance_score>  (120) 
0.901956

>  <inchikey>  (120) 
GQPALOGPMKZAID-UHFFFAOYSA-N

>  <name>  (120) 
C132369-P220

>  <HIPPO Pose ID>  (120) 
127841

>  <Energy>  (120) 
80.956755

>  <exports>  (120) 
['/opt/xchem-fragalysis-2/maxwin/BulkDock/OUTPUTS/openbind_a71ev2a_c1_knitwork_pure_165VWF8.sdf', '/opt/xchem-fragalysis-2/maxwin/BulkDock/OUTPUTS/openbind_a71ev2a_c1_knitwork_pure_1B07PTU.sdf', '/opt/xchem-fragalysis-2/maxwin/BulkDock/OUTPUTS/openbind_a71ev2a_c1_knitwork_pure_1B07UWE.sdf', '/opt/xchem-fragalysis-2/maxwin/openbind-hippo/a71ev2a/openbind_a71ev2a_c1_scaffold_products.sdf', '/opt/xchem-fragalysis-2/maxwin/openbind-hippo/a71ev2a/cycle_01/bulkdock/openbind_a71ev2a_c1_scaffold_products.sdf', '/opt/xchem-fragalysis-2/maxwin/openbind-hippo/a71ev2a/cycle_01/bulkdock/openbind_a71ev2a_c1_scaffolds.sdf']

>  <fragmenstein_runtime>  (120) 
2.102743

$$$$
C13210-P270
     RDKit          3D

 13 13  0  0  0  0  0  0  0  0999 V2000
    7.1682   15.6474   26.4455 C   0  0  0  0  0  0  0  0  0  0  0  0
    7.8620   15.5161   25.0988 C   0  0  0  0  0  0  0  0  0  0  0  0
    6.8866   15.0997   24.0002 C   0  0  0  0  0  0  0  0  0  0  0  0
    7.6918   14.3293   22.5974 S   0  0  0  0  0  0  0  0  0  0  0  0
    8.4919   15.3302   21.9266 O   0  0  0  0  0  0  0  0  0  0  0  0
    6.7288   13.5336   21.8625 O   0  0  0  0  0  0  0  0  0  0  0  0
    8.8163   13.2547   23.3439 N   0  0  0  0  0  0  0  0  0  0  0  0
    8.1826   12.0504   23.7205 N   0  0  0  0  0  0  0  0  0  0  0  0
    9.0705   10.8989   23.5133 C   0  0  0  0  0  0  0  0  0  0  0  0
    8.4238    9.5660   23.8704 C   0  0  0  0  0  0  0  0  0  0  0  0
    7.3552    9.5967   24.9554 C   0  0  0  0  0  0  0  0  0  0  0  0
    6.8511   10.9381   25.4288 C   0  0  0  0  0  0  0  0  0  0  0  0
    7.7959   12.0723   25.1334 C   0  0  0  0  0  0  0  0  0  0  0  0
  1  2  1  0
  2  3  1  0
  3  4  1  0
  4  5  2  0
  4  6  2  0
  4  7  1  0
  7  8  1  0
  8  9  1  0
  9 10  1  0
 10 11  1  0
 11 12  1  0
 12 13  1  0
 13  8  1  0
M  END
>  <ref_pdb>  (121) 
A4020a

>  <subsites>  (121) 
1 - Active Site

>  <HIPPO Compound ID>  (121) 
51900

>  <energy_score>  (121) 
-19.79991

>  <fragmenstein_mode>  (121) 
expansion

>  <scratch_subdir>  (121) 
/opt/xchem-fragalysis-2/maxwin/BulkDock/SCRATCH/512156/C13210-P270

>  <smiles>  (121) 
CCCS(=O)(=O)NN1CCCCC1

>  <alias>  (121) 
C13210-P270

>  <ref_mols>  (121) 
A0719a,A4020a

>  <inspiration_score>  (121) 
None

>  <tags>  (121) 
BulkDock Fragalysis export,fragmenstein_placed,openbind_a71ev2a_c1_scaffolds,openbind_a71ev2a_c1_knitwork_pure

>  <fragmenstein_outcome>  (121) 
acceptable

>  <fragmenstein_error>  (121) 


>  <distance_score>  (121) 
0.874368

>  <inchikey>  (121) 
LDYJYHQEZNWGPU-UHFFFAOYSA-N

>  <name>  (121) 
C13210-P270

>  <HIPPO Pose ID>  (121) 
127868

>  <Energy>  (121) 
37.156456

>  <exports>  (121) 
['/opt/xchem-fragalysis-2/maxwin/BulkDock/OUTPUTS/openbind_a71ev2a_c1_knitwork_pure_165VWF8.sdf', '/opt/xchem-fragalysis-2/maxwin/BulkDock/OUTPUTS/openbind_a71ev2a_c1_knitwork_pure_1B07PTU.sdf', '/opt/xchem-fragalysis-2/maxwin/BulkDock/OUTPUTS/openbind_a71ev2a_c1_knitwork_pure_1B07UWE.sdf', '/opt/xchem-fragalysis-2/maxwin/openbind-hippo/a71ev2a/openbind_a71ev2a_c1_scaffold_products.sdf', '/opt/xchem-fragalysis-2/maxwin/openbind-hippo/a71ev2a/cycle_01/bulkdock/openbind_a71ev2a_c1_scaffold_products.sdf', '/opt/xchem-fragalysis-2/maxwin/openbind-hippo/a71ev2a/cycle_01/bulkdock/openbind_a71ev2a_c1_scaffolds.sdf']

>  <fragmenstein_runtime>  (121) 
4.7973

$$$$
C56215-P205
     RDKit          3D

 12 13  0  0  0  0  0  0  0  0999 V2000
    8.9053   14.1266   25.6408 O   0  0  0  0  0  0  0  0  0  0  0  0
    8.4996   13.2759   24.8428 C   0  0  0  0  0  0  0  0  0  0  0  0
    8.4767   13.4850   23.3427 C   0  0  0  0  0  0  0  0  0  0  0  0
    9.2429   14.7004   22.8466 C   0  0  0  0  0  0  0  0  0  0  0  0
   10.7141   14.4425   22.7180 C   0  0  0  0  0  0  0  0  0  0  0  0
   11.6814   15.0130   23.7113 C   0  0  0  0  0  0  0  0  0  0  0  0
   11.6062   15.5909   22.3247 C   0  0  0  0  0  0  0  0  0  0  0  0
    7.9445   11.9741   25.3762 C   0  0  2  0  0  0  0  0  0  0  0  0
    7.6514   10.8317   24.4471 C   0  0  0  0  0  0  0  0  0  0  0  0
    6.7875    9.9233   25.2993 C   0  0  0  0  0  0  0  0  0  0  0  0
    6.1910   10.7639   26.3433 N   0  0  0  0  0  0  0  0  0  0  0  0
    6.6195   12.1458   26.0862 C   0  0  0  0  0  0  0  0  0  0  0  0
  1  2  2  0
  2  3  1  0
  3  4  1  0
  4  5  1  0
  5  6  1  0
  6  7  1  0
  8  2  1  6
  8  9  1  0
  9 10  1  0
 10 11  1  0
 11 12  1  0
  7  5  1  0
 12  8  1  0
M  END
>  <ref_pdb>  (122) 
A3694a

>  <subsites>  (122) 
1 - Active Site

>  <HIPPO Compound ID>  (122) 
96113

>  <energy_score>  (122) 
-20.11904

>  <fragmenstein_mode>  (122) 
expansion

>  <scratch_subdir>  (122) 
/opt/xchem-fragalysis-2/maxwin/BulkDock/SCRATCH/512156/C56215-P205

>  <smiles>  (122) 
O=C(CCC1CC1)[C@@H]1CCNC1

>  <alias>  (122) 
C56215-P205

>  <ref_mols>  (122) 
A3694a,A1779a

>  <inspiration_score>  (122) 
None

>  <tags>  (122) 
BulkDock Fragalysis export,fragmenstein_placed,openbind_a71ev2a_c1_scaffolds,openbind_a71ev2a_c1_knitwork_pure

>  <fragmenstein_outcome>  (122) 
acceptable

>  <fragmenstein_error>  (122) 


>  <distance_score>  (122) 
0.969902

>  <inchikey>  (122) 
KUFKNJXJTDVHJC-UHFFFAOYSA-N

>  <name>  (122) 
C56215-P205

>  <HIPPO Pose ID>  (122) 
128248

>  <Energy>  (122) 
28.834353

>  <exports>  (122) 
['/opt/xchem-fragalysis-2/maxwin/BulkDock/OUTPUTS/openbind_a71ev2a_c1_knitwork_pure_165VWF8.sdf', '/opt/xchem-fragalysis-2/maxwin/BulkDock/OUTPUTS/openbind_a71ev2a_c1_knitwork_pure_1B07PTU.sdf', '/opt/xchem-fragalysis-2/maxwin/BulkDock/OUTPUTS/openbind_a71ev2a_c1_knitwork_pure_1B07UWE.sdf', '/opt/xchem-fragalysis-2/maxwin/openbind-hippo/a71ev2a/openbind_a71ev2a_c1_scaffold_products.sdf', '/opt/xchem-fragalysis-2/maxwin/openbind-hippo/a71ev2a/cycle_01/bulkdock/openbind_a71ev2a_c1_scaffold_products.sdf', '/opt/xchem-fragalysis-2/maxwin/openbind-hippo/a71ev2a/cycle_01/bulkdock/openbind_a71ev2a_c1_scaffolds.sdf']

>  <fragmenstein_runtime>  (122) 
2.656247

$$$$
C118307-P200
     RDKit          3D

 21 23  0  0  0  0  0  0  0  0999 V2000
    8.9555   16.8321   19.4887 C   0  0  0  0  0  0  0  0  0  0  0  0
    9.3961   15.6858   18.8254 C   0  0  0  0  0  0  0  0  0  0  0  0
   10.4288   14.9195   19.3063 C   0  0  0  0  0  0  0  0  0  0  0  0
   10.8987   15.2501   20.5438 C   0  0  0  0  0  0  0  0  0  0  0  0
   11.8695   14.3885   21.2525 C   0  0  0  0  0  0  0  0  0  0  0  0
   11.1176   13.3243   22.0498 C   0  0  0  0  0  0  0  0  0  0  0  0
   10.8675   13.6381   23.4296 N   0  0  0  0  0  0  0  0  0  0  0  0
   10.8735   12.5725   24.3671 C   0  0  0  0  0  0  0  0  0  0  0  0
    9.6893   11.6795   24.3453 C   0  0  0  0  0  0  0  0  0  0  0  0
    9.5176   10.4689   23.7191 C   0  0  0  0  0  0  0  0  0  0  0  0
    8.4644    9.8493   24.3124 O   0  0  0  0  0  0  0  0  0  0  0  0
    7.9840   10.7620   25.1959 C   0  0  0  0  0  0  0  0  0  0  0  0
    8.6899   11.8566   25.2822 N   0  0  0  0  0  0  0  0  0  0  0  0
    9.8283   14.5879   23.7100 C   0  0  0  0  0  0  0  0  0  0  0  0
    8.4156   14.3352   23.3311 C   0  0  0  0  0  0  0  0  0  0  0  0
    7.8108   14.2565   22.0989 C   0  0  0  0  0  0  0  0  0  0  0  0
    6.4676   14.1602   22.2793 O   0  0  0  0  0  0  0  0  0  0  0  0
    6.3187   14.2601   23.6288 C   0  0  0  0  0  0  0  0  0  0  0  0
    7.4361   14.3691   24.3063 N   0  0  0  0  0  0  0  0  0  0  0  0
   10.4255   16.3012   21.2283 N   0  0  0  0  0  0  0  0  0  0  0  0
    9.4730   17.0837   20.7036 C   0  0  0  0  0  0  0  0  0  0  0  0
  1  2  2  0
  2  3  1  0
  3  4  2  0
  4  5  1  0
  5  6  1  0
  6  7  1  0
  7  8  1  0
  8  9  1  0
  9 10  2  0
 10 11  1  0
 11 12  1  0
 12 13  2  0
  7 14  1  0
 14 15  1  0
 15 16  2  0
 16 17  1  0
 17 18  1  0
 18 19  2  0
  4 20  1  0
 20 21  2  0
 21  1  1  0
 13  9  1  0
 19 15  1  0
M  END
>  <ref_pdb>  (123) 
A3623a

>  <subsites>  (123) 
1 - Active Site

>  <HIPPO Compound ID>  (123) 
118923

>  <energy_score>  (123) 
-26.17015

>  <fragmenstein_mode>  (123) 
expansion

>  <scratch_subdir>  (123) 
/opt/xchem-fragalysis-2/maxwin/BulkDock/SCRATCH/512156/C118307-P200

>  <smiles>  (123) 
c1ccc(CCN(Cc2cocn2)Cc2cocn2)nc1

>  <alias>  (123) 
C118307-P200

>  <ref_mols>  (123) 
A3623a,A3568a

>  <inspiration_score>  (123) 
None

>  <tags>  (123) 
BulkDock Fragalysis export,fragmenstein_placed,openbind_a71ev2a_c1_scaffolds,openbind_a71ev2a_c1_knitwork_pure

>  <fragmenstein_outcome>  (123) 
acceptable

>  <fragmenstein_error>  (123) 


>  <distance_score>  (123) 
0.73825

>  <inchikey>  (123) 
YFAQFICQNGNQSS-UHFFFAOYSA-N

>  <name>  (123) 
C118307-P200

>  <HIPPO Pose ID>  (123) 
129330

>  <Energy>  (123) 
91.485323

>  <exports>  (123) 
['/opt/xchem-fragalysis-2/maxwin/BulkDock/OUTPUTS/openbind_a71ev2a_c1_knitwork_pure_165VWF8.sdf', '/opt/xchem-fragalysis-2/maxwin/BulkDock/OUTPUTS/openbind_a71ev2a_c1_knitwork_pure_1B07PTU.sdf', '/opt/xchem-fragalysis-2/maxwin/BulkDock/OUTPUTS/openbind_a71ev2a_c1_knitwork_pure_1B07UWE.sdf', '/opt/xchem-fragalysis-2/maxwin/openbind-hippo/a71ev2a/openbind_a71ev2a_c1_scaffold_products.sdf', '/opt/xchem-fragalysis-2/maxwin/openbind-hippo/a71ev2a/cycle_01/bulkdock/openbind_a71ev2a_c1_scaffold_products.sdf', '/opt/xchem-fragalysis-2/maxwin/openbind-hippo/a71ev2a/cycle_01/bulkdock/openbind_a71ev2a_c1_scaffolds.sdf']

>  <fragmenstein_runtime>  (123) 
2.240826

$$$$
C132547-P200
     RDKit          3D

 25 27  0  0  0  0  0  0  0  0999 V2000
    0.3303   12.7757   18.1487 C   0  0  0  0  0  0  0  0  0  0  0  0
    1.8050   12.4966   18.4776 C   0  0  0  0  0  0  0  0  0  0  0  0
    1.9568   11.0419   18.9468 C   0  0  0  0  0  0  0  0  0  0  0  0
    2.6694   12.7400   17.2411 C   0  0  0  0  0  0  0  0  0  0  0  0
    2.2811   13.4079   19.5515 C   0  0  0  0  0  0  0  0  0  0  0  0
    2.0134   14.6815   19.9860 C   0  0  0  0  0  0  0  0  0  0  0  0
    2.9548   15.0713   20.9252 N   0  0  0  0  0  0  0  0  0  0  0  0
    3.7046   13.9833   21.0642 C   0  0  0  0  0  0  0  0  0  0  0  0
    5.0435   13.8317   21.6237 C   0  0  0  0  0  0  0  0  0  0  0  0
    5.5540   12.7970   21.5233 O   0  0  0  0  0  0  0  0  0  0  0  0
    5.5773   15.1439   22.1713 N   0  0  0  0  0  0  0  0  0  0  0  0
    6.8967   15.4996   22.6324 C   0  0  2  0  0  0  0  0  0  0  0  0
    7.8525   14.9149   21.5463 C   0  0  0  0  0  0  0  0  0  0  0  0
    8.8879   15.8145   21.1683 O   0  0  0  0  0  0  0  0  0  0  0  0
    7.2096   15.0664   24.0899 C   0  0  0  0  0  0  0  0  0  0  0  0
    8.3792   14.1297   24.2279 C   0  0  0  0  0  0  0  0  0  0  0  0
    9.6764   14.2501   23.7478 C   0  0  0  0  0  0  0  0  0  0  0  0
   10.1967   12.9900   23.6180 N   0  0  0  0  0  0  0  0  0  0  0  0
    9.3185   12.0930   24.1578 C   0  0  0  0  0  0  0  0  0  0  0  0
    9.3515   10.7122   24.1568 C   0  0  0  0  0  0  0  0  0  0  0  0
    8.3836   10.0952   24.9346 C   0  0  0  0  0  0  0  0  0  0  0  0
    7.3958   10.7868   25.6268 C   0  0  0  0  0  0  0  0  0  0  0  0
    7.2923   12.1547   25.4804 C   0  0  0  0  0  0  0  0  0  0  0  0
    8.2743   12.8147   24.7312 C   0  0  0  0  0  0  0  0  0  0  0  0
    3.3141   12.9393   20.2842 O   0  0  0  0  0  0  0  0  0  0  0  0
  1  2  1  0
  2  3  1  0
  2  4  1  0
  2  5  1  0
  5  6  2  0
  6  7  1  0
  7  8  2  0
  8  9  1  0
  9 10  2  0
  9 11  1  0
 11 12  1  0
 12 13  1  6
 13 14  1  0
 12 15  1  0
 15 16  1  0
 16 17  2  0
 17 18  1  0
 18 19  1  0
 19 20  2  0
 20 21  1  0
 21 22  2  0
 22 23  1  0
 23 24  2  0
  8 25  1  0
 25  5  1  0
 24 16  1  0
 24 19  1  0
M  END
>  <ref_pdb>  (124) 
A3623a

>  <subsites>  (124) 
1 - Active Site

>  <HIPPO Compound ID>  (124) 
78261

>  <energy_score>  (124) 
-2.599994

>  <fragmenstein_mode>  (124) 
expansion

>  <scratch_subdir>  (124) 
/opt/xchem-fragalysis-2/maxwin/BulkDock/SCRATCH/512156/C132547-P200

>  <smiles>  (124) 
CC(C)(C)c1cnc(C(=O)N[C@H](CO)Cc2c[nH]c3ccccc23)o1

>  <alias>  (124) 
C132547-P200

>  <ref_mols>  (124) 
A3623a,A3568a

>  <inspiration_score>  (124) 
None

>  <tags>  (124) 
BulkDock Fragalysis export,fragmenstein_placed,openbind_a71ev2a_c1_scaffolds,openbind_a71ev2a_c1_knitwork_pure

>  <fragmenstein_outcome>  (124) 
acceptable

>  <fragmenstein_error>  (124) 


>  <distance_score>  (124) 
0.931227

>  <inchikey>  (124) 
XPFGRKQWKIHVAC-UHFFFAOYSA-N

>  <name>  (124) 
C132547-P200

>  <HIPPO Pose ID>  (124) 
129392

>  <Energy>  (124) 
137.611901

>  <exports>  (124) 
['/opt/xchem-fragalysis-2/maxwin/BulkDock/OUTPUTS/openbind_a71ev2a_c1_knitwork_pure_165VWF8.sdf', '/opt/xchem-fragalysis-2/maxwin/BulkDock/OUTPUTS/openbind_a71ev2a_c1_knitwork_pure_1B07PTU.sdf', '/opt/xchem-fragalysis-2/maxwin/BulkDock/OUTPUTS/openbind_a71ev2a_c1_knitwork_pure_1B07UWE.sdf', '/opt/xchem-fragalysis-2/maxwin/openbind-hippo/a71ev2a/openbind_a71ev2a_c1_scaffold_products.sdf', '/opt/xchem-fragalysis-2/maxwin/openbind-hippo/a71ev2a/cycle_01/bulkdock/openbind_a71ev2a_c1_scaffold_products.sdf', '/opt/xchem-fragalysis-2/maxwin/openbind-hippo/a71ev2a/cycle_01/bulkdock/openbind_a71ev2a_c1_scaffolds.sdf']

>  <fragmenstein_runtime>  (124) 
5.130576

$$$$
C68035-P51
     RDKit          3D

 24 27  0  0  0  0  0  0  0  0999 V2000
   19.3909   13.1624    3.0913 O   0  0  0  0  0  0  0  0  0  0  0  0
   19.6458   14.2595    2.7900 C   0  0  0  0  0  0  0  0  0  0  0  0
   21.0059   14.9805    2.6993 N   0  0  0  0  0  0  0  0  0  0  0  0
   22.3411   14.4784    2.8678 C   0  0  0  0  0  0  0  0  0  0  0  0
   22.8160   13.9082    1.5832 C   0  0  0  0  0  0  0  0  0  0  0  0
   22.2431   14.0174    0.3972 N   0  0  0  0  0  0  0  0  0  0  0  0
   23.0095   13.3371   -0.5193 N   0  0  0  0  0  0  0  0  0  0  0  0
   24.0429   12.8347    0.1176 C   0  0  0  0  0  0  0  0  0  0  0  0
   23.9672   13.1816    1.4393 N   0  0  0  0  0  0  0  0  0  0  0  0
   25.0100   12.9342    2.4112 C   0  0  0  0  0  0  0  0  0  0  0  0
   26.0545   11.9249    1.9264 C   0  0  0  0  0  0  0  0  0  0  0  0
   26.4032   12.1387    0.4516 C   0  0  0  0  0  0  0  0  0  0  0  0
   25.1568   12.0219   -0.4283 C   0  0  0  0  0  0  0  0  0  0  0  0
   18.5415   15.1918    2.4621 C   0  0  0  0  0  0  0  0  0  0  0  0
   18.6059   16.3604    1.7345 C   0  0  0  0  0  0  0  0  0  0  0  0
   17.3647   16.9115    1.6748 O   0  0  0  0  0  0  0  0  0  0  0  0
   16.5630   16.0275    2.3479 C   0  0  0  0  0  0  0  0  0  0  0  0
   15.1474   16.3647    2.4094 C   0  0  0  0  0  0  0  0  0  0  0  0
   14.6663   17.6392    2.0865 C   0  0  0  0  0  0  0  0  0  0  0  0
   13.3025   17.9165    2.1687 C   0  0  0  0  0  0  0  0  0  0  0  0
   12.4493   16.9061    2.5773 C   0  0  0  0  0  0  0  0  0  0  0  0
   12.8615   15.6610    2.9006 N   0  0  0  0  0  0  0  0  0  0  0  0
   14.2002   15.4211    2.7984 C   0  0  0  0  0  0  0  0  0  0  0  0
   17.2152   14.9951    2.8459 N   0  0  0  0  0  0  0  0  0  0  0  0
  1  2  2  0
  2  3  1  0
  3  4  1  0
  4  5  1  0
  5  6  2  0
  6  7  1  0
  7  8  2  0
  8  9  1  0
  9 10  1  0
 10 11  1  0
 11 12  1  0
 12 13  1  0
  2 14  1  0
 14 15  2  0
 15 16  1  0
 16 17  1  0
 17 18  1  0
 18 19  2  0
 19 20  1  0
 20 21  2  0
 21 22  1  0
 22 23  2  0
 17 24  2  0
  9  5  1  0
 24 14  1  0
 13  8  1  0
 23 18  1  0
M  END
>  <ref_pdb>  (125) 
A0239a

>  <subsites>  (125) 
1 - Active Site,6 - A0486/A/147/1

>  <HIPPO Compound ID>  (125) 
64717

>  <energy_score>  (125) 
-10.963272

>  <fragmenstein_mode>  (125) 
expansion

>  <scratch_subdir>  (125) 
/opt/xchem-fragalysis-2/maxwin/BulkDock/SCRATCH/512156/C68035-P51

>  <smiles>  (125) 
O=C(NCc1nnc2n1CCCC2)c1coc(-c2cccnc2)n1

>  <alias>  (125) 
C68035-P51

>  <ref_mols>  (125) 
A0239a,A3568a

>  <inspiration_score>  (125) 
None

>  <tags>  (125) 
BulkDock Fragalysis export,fragmenstein_placed,openbind_a71ev2a_c1_scaffolds,openbind_a71ev2a_c1_knitwork_pure

>  <fragmenstein_outcome>  (125) 
acceptable

>  <fragmenstein_error>  (125) 


>  <distance_score>  (125) 
0.470153

>  <inchikey>  (125) 
SPKYROZOTIZKDR-UHFFFAOYSA-N

>  <name>  (125) 
C68035-P51

>  <HIPPO Pose ID>  (125) 
130153

>  <Energy>  (125) 
46.237092

>  <exports>  (125) 
['/opt/xchem-fragalysis-2/maxwin/BulkDock/OUTPUTS/openbind_a71ev2a_c1_knitwork_pure_165VWF8.sdf', '/opt/xchem-fragalysis-2/maxwin/BulkDock/OUTPUTS/openbind_a71ev2a_c1_knitwork_pure_1B07PTU.sdf', '/opt/xchem-fragalysis-2/maxwin/BulkDock/OUTPUTS/openbind_a71ev2a_c1_knitwork_pure_1B07UWE.sdf', '/opt/xchem-fragalysis-2/maxwin/openbind-hippo/a71ev2a/openbind_a71ev2a_c1_scaffold_products.sdf', '/opt/xchem-fragalysis-2/maxwin/openbind-hippo/a71ev2a/cycle_01/bulkdock/openbind_a71ev2a_c1_scaffold_products.sdf', '/opt/xchem-fragalysis-2/maxwin/openbind-hippo/a71ev2a/cycle_01/bulkdock/openbind_a71ev2a_c1_scaffolds.sdf']

>  <fragmenstein_runtime>  (125) 
2.156768

$$$$
C64769-P219
     RDKit          3D

 21 24  0  0  0  0  0  0  0  0999 V2000
   12.3874   12.3718   23.7382 O   0  0  0  0  0  0  0  0  0  0  0  0
   11.7166   13.2689   23.4169 C   0  0  0  0  0  0  0  0  0  0  0  0
   10.2053   13.5047   23.6063 N   0  0  0  0  0  0  0  0  0  0  0  0
    9.2269   12.6794   24.1244 C   0  0  0  0  0  0  0  0  0  0  0  0
    9.3679   11.2910   24.0331 C   0  0  0  0  0  0  0  0  0  0  0  0
    8.4857   10.4507   24.7063 C   0  0  0  0  0  0  0  0  0  0  0  0
    7.5196   11.0109   25.5086 C   0  0  0  0  0  0  0  0  0  0  0  0
    7.3770   12.3890   25.5677 C   0  0  0  0  0  0  0  0  0  0  0  0
    8.1721   13.2469   24.8289 C   0  0  0  0  0  0  0  0  0  0  0  0
    6.3300   12.7203   26.5623 C   0  0  0  0  0  0  0  0  0  0  0  0
    5.9805   11.3564   27.1610 C   0  0  0  0  0  0  0  0  0  0  0  0
    6.7551   10.3440   26.4651 N   0  0  0  0  0  0  0  0  0  0  0  0
   12.3308   14.4126   22.7341 C   0  0  0  0  0  0  0  0  0  0  0  0
   13.3985   15.0544   23.3349 C   0  0  0  0  0  0  0  0  0  0  0  0
   13.9147   16.1549   22.6951 C   0  0  0  0  0  0  0  0  0  0  0  0
   13.4652   16.5929   21.5097 N   0  0  0  0  0  0  0  0  0  0  0  0
   12.5071   15.8706   20.8736 C   0  0  0  0  0  0  0  0  0  0  0  0
   12.2190   16.2222   19.4544 C   0  0  0  0  0  0  0  0  0  0  0  0
   12.2970   15.1812   18.3722 C   0  0  0  0  0  0  0  0  0  0  0  0
   13.3952   16.1905   18.5123 C   0  0  0  0  0  0  0  0  0  0  0  0
   11.8801   14.7963   21.4824 C   0  0  0  0  0  0  0  0  0  0  0  0
  1  2  2  0
  2  3  1  0
  3  4  1  0
  4  5  2  0
  5  6  1  0
  6  7  2  0
  7  8  1  0
  8  9  2  0
  8 10  1  0
 10 11  1  0
 11 12  1  0
  2 13  1  0
 13 14  2  0
 14 15  1  0
 15 16  2  0
 16 17  1  0
 17 18  1  0
 18 19  1  0
 19 20  1  0
 17 21  2  0
  9  4  1  0
 21 13  1  0
 12  7  1  0
 20 18  1  0
M  END
>  <ref_pdb>  (126) 
A3564a

>  <subsites>  (126) 
1 - Active Site

>  <HIPPO Compound ID>  (126) 
78532

>  <energy_score>  (126) 
-24.938768

>  <fragmenstein_mode>  (126) 
expansion

>  <scratch_subdir>  (126) 
/opt/xchem-fragalysis-2/maxwin/BulkDock/SCRATCH/512156/C64769-P219

>  <smiles>  (126) 
O=C(Nc1ccc2c(c1)CCN2)c1ccnc(C2CC2)c1

>  <alias>  (126) 
C64769-P219

>  <ref_mols>  (126) 
A3564a,A1778a

>  <inspiration_score>  (126) 
None

>  <tags>  (126) 
BulkDock Fragalysis export,fragmenstein_placed,openbind_a71ev2a_c1_scaffolds,openbind_a71ev2a_c1_knitwork_pure

>  <fragmenstein_outcome>  (126) 
acceptable

>  <fragmenstein_error>  (126) 


>  <distance_score>  (126) 
0.771946

>  <inchikey>  (126) 
DYSLDIFRQOYSOW-UHFFFAOYSA-N

>  <name>  (126) 
C64769-P219

>  <HIPPO Pose ID>  (126) 
130985

>  <Energy>  (126) 
53.913974

>  <exports>  (126) 
['/opt/xchem-fragalysis-2/maxwin/BulkDock/OUTPUTS/openbind_a71ev2a_c1_knitwork_pure_165VWF8.sdf', '/opt/xchem-fragalysis-2/maxwin/BulkDock/OUTPUTS/openbind_a71ev2a_c1_knitwork_pure_1B07PTU.sdf', '/opt/xchem-fragalysis-2/maxwin/BulkDock/OUTPUTS/openbind_a71ev2a_c1_knitwork_pure_1B07UWE.sdf', '/opt/xchem-fragalysis-2/maxwin/openbind-hippo/a71ev2a/openbind_a71ev2a_c1_scaffold_products.sdf', '/opt/xchem-fragalysis-2/maxwin/openbind-hippo/a71ev2a/cycle_01/bulkdock/openbind_a71ev2a_c1_scaffold_products.sdf', '/opt/xchem-fragalysis-2/maxwin/openbind-hippo/a71ev2a/cycle_01/bulkdock/openbind_a71ev2a_c1_scaffolds.sdf']

>  <fragmenstein_runtime>  (126) 
7.407686

$$$$
C51427-P138
     RDKit          3D

 23 25  0  0  0  0  0  0  0  0999 V2000
    3.2277   15.3254   25.0969 C   0  0  0  0  0  0  0  0  0  0  0  0
    3.0359   15.5663   23.6032 C   0  0  0  0  0  0  0  0  0  0  0  0
    3.9656   14.7000   22.7417 C   0  0  2  0  0  0  0  0  0  0  0  0
    5.3729   14.9974   22.9516 N   0  0  0  0  0  0  0  0  0  0  0  0
    6.6164   14.1489   22.6908 C   0  0  0  0  0  0  0  0  0  0  0  0
    6.7249   13.1045   22.1948 O   0  0  0  0  0  0  0  0  0  0  0  0
    7.8184   14.7604   23.2638 C   0  0  0  0  0  0  0  0  0  0  0  0
    8.2263   16.0536   23.0447 N   0  0  0  0  0  0  0  0  0  0  0  0
    9.4214   16.0943   23.5913 C   0  0  0  0  0  0  0  0  0  0  0  0
    9.7879   14.9797   24.2765 O   0  0  0  0  0  0  0  0  0  0  0  0
    8.7531   14.1116   24.0633 C   0  0  0  0  0  0  0  0  0  0  0  0
    8.8956   12.7444   24.6589 C   0  0  2  0  0  0  0  0  0  0  0  0
    9.2828   11.7475   23.5695 C   0  0  0  0  0  0  0  0  0  0  0  0
    9.1044   10.2783   23.9156 C   0  0  0  0  0  0  0  0  0  0  0  0
    7.8905   10.0148   24.7887 C   0  0  0  0  0  0  0  0  0  0  0  0
    7.6938   10.9449   25.8950 N   0  0  0  0  0  0  0  0  0  0  0  0
    7.6236   12.3232   25.4070 C   0  0  0  0  0  0  0  0  0  0  0  0
    3.5554   14.5840   21.2730 C   0  0  0  0  0  0  0  0  0  0  0  0
    3.8425   13.3998   20.5757 C   0  0  0  0  0  0  0  0  0  0  0  0
    3.3868   13.2190   19.2724 C   0  0  0  0  0  0  0  0  0  0  0  0
    2.6278   14.2212   18.7015 C   0  0  0  0  0  0  0  0  0  0  0  0
    2.3768   15.3624   19.4502 C   0  0  0  0  0  0  0  0  0  0  0  0
    2.8407   15.5869   20.7055 N   0  0  0  0  0  0  0  0  0  0  0  0
  1  2  1  0
  3  2  1  6
  3  4  1  0
  4  5  1  0
  5  6  2  0
  5  7  1  0
  7  8  1  0
  8  9  2  0
  9 10  1  0
 10 11  1  0
 12 11  1  6
 12 13  1  0
 13 14  1  0
 14 15  1  0
 15 16  1  0
 16 17  1  0
  3 18  1  0
 18 19  2  0
 19 20  1  0
 20 21  2  0
 21 22  1  0
 22 23  2  0
 11  7  2  0
 17 12  1  0
 23 18  1  0
M  END
>  <ref_pdb>  (127) 
A3054a

>  <subsites>  (127) 
1 - Active Site

>  <HIPPO Compound ID>  (127) 
43009

>  <energy_score>  (127) 
-14.513678

>  <fragmenstein_mode>  (127) 
expansion

>  <scratch_subdir>  (127) 
/opt/xchem-fragalysis-2/maxwin/BulkDock/SCRATCH/512156/C51427-P138

>  <smiles>  (127) 
CC[C@H](NC(=O)c1ncoc1[C@@H]1CCCNC1)c1ccccn1

>  <alias>  (127) 
C51427-P138

>  <ref_mols>  (127) 
A3623a,A3054a

>  <inspiration_score>  (127) 
None

>  <tags>  (127) 
BulkDock Fragalysis export,fragmenstein_placed,openbind_a71ev2a_c1_scaffolds,openbind_a71ev2a_c1_knitwork_pure

>  <fragmenstein_outcome>  (127) 
acceptable

>  <fragmenstein_error>  (127) 


>  <distance_score>  (127) 
0.96796

>  <inchikey>  (127) 
KPTSUQKOCKVBNL-UHFFFAOYSA-N

>  <name>  (127) 
C51427-P138

>  <HIPPO Pose ID>  (127) 
131212

>  <Energy>  (127) 
68.786164

>  <exports>  (127) 
['/opt/xchem-fragalysis-2/maxwin/BulkDock/OUTPUTS/openbind_a71ev2a_c1_knitwork_pure_165VWF8.sdf', '/opt/xchem-fragalysis-2/maxwin/BulkDock/OUTPUTS/openbind_a71ev2a_c1_knitwork_pure_1B07PTU.sdf', '/opt/xchem-fragalysis-2/maxwin/BulkDock/OUTPUTS/openbind_a71ev2a_c1_knitwork_pure_1B07UWE.sdf', '/opt/xchem-fragalysis-2/maxwin/openbind-hippo/a71ev2a/openbind_a71ev2a_c1_scaffold_products.sdf', '/opt/xchem-fragalysis-2/maxwin/openbind-hippo/a71ev2a/cycle_01/bulkdock/openbind_a71ev2a_c1_scaffold_products.sdf', '/opt/xchem-fragalysis-2/maxwin/openbind-hippo/a71ev2a/cycle_01/bulkdock/openbind_a71ev2a_c1_scaffolds.sdf']

>  <fragmenstein_runtime>  (127) 
4.323428

$$$$
C47239-P208
     RDKit          3D

 19 21  0  0  0  0  0  0  0  0999 V2000
   -5.4121    5.8000    3.3961 O   0  0  0  0  0  0  0  0  0  0  0  0
   -4.6062    5.9082    4.3022 C   0  0  0  0  0  0  0  0  0  0  0  0
   -3.2537    5.6556    4.1738 N   0  0  0  0  0  0  0  0  0  0  0  0
   -2.5324    5.9271    5.3913 C   0  0  1  0  0  0  0  0  0  0  0  0
   -1.6506    7.1522    5.3211 C   0  0  0  0  0  0  0  0  0  0  0  0
   -1.7949    8.1547    4.3517 C   0  0  0  0  0  0  0  0  0  0  0  0
   -0.9538    9.2705    4.3574 C   0  0  0  0  0  0  0  0  0  0  0  0
    0.0160    9.4184    5.3477 C   0  0  0  0  0  0  0  0  0  0  0  0
    0.1528    8.4455    6.3328 C   0  0  0  0  0  0  0  0  0  0  0  0
   -0.6589    7.3159    6.2966 C   0  0  0  0  0  0  0  0  0  0  0  0
   -0.4480    6.3359    7.1912 F   0  0  0  0  0  0  0  0  0  0  0  0
   -3.6591    6.0777    6.4260 C   0  0  0  0  0  0  0  0  0  0  0  0
   -4.8484    6.2831    5.6192 N   0  0  0  0  0  0  0  0  0  0  0  0
   -6.1731    6.4139    6.2218 C   0  0  2  0  0  0  0  0  0  0  0  0
   -6.8938    5.0629    6.3201 C   0  0  0  0  0  0  0  0  0  0  0  0
   -8.2908    5.2392    6.9111 C   0  0  0  0  0  0  0  0  0  0  0  0
   -9.0873    6.3060    6.1612 C   0  0  0  0  0  0  0  0  0  0  0  0
   -8.3795    7.5882    6.1449 N   0  0  0  0  0  0  0  0  0  0  0  0
   -7.0656    7.4462    5.4963 C   0  0  0  0  0  0  0  0  0  0  0  0
  1  2  2  0
  2  3  1  0
  3  4  1  0
  4  5  1  6
  5  6  2  0
  6  7  1  0
  7  8  2  0
  8  9  1  0
  9 10  2  0
 10 11  1  0
  4 12  1  0
 12 13  1  0
 14 13  1  6
 14 15  1  0
 15 16  1  0
 16 17  1  0
 17 18  1  0
 18 19  1  0
 13  2  1  0
 19 14  1  0
 10  5  1  0
M  END
>  <ref_pdb>  (128) 
A3706b

>  <subsites>  (128) 
1 - Active Site,17 - A1081/A/201/1

>  <HIPPO Compound ID>  (128) 
45769

>  <energy_score>  (128) 
-43.323039

>  <fragmenstein_mode>  (128) 
expansion

>  <scratch_subdir>  (128) 
/opt/xchem-fragalysis-2/maxwin/BulkDock/SCRATCH/512156/C47239-P208

>  <smiles>  (128) 
O=C1N[C@@H](c2ccccc2F)CN1[C@@H]1CCCNC1

>  <alias>  (128) 
C47239-P208

>  <ref_mols>  (128) 
A3706b,A1081b

>  <inspiration_score>  (128) 
None

>  <tags>  (128) 
BulkDock Fragalysis export,fragmenstein_placed,openbind_a71ev2a_c1_scaffolds,openbind_a71ev2a_c1_knitwork_pure

>  <fragmenstein_outcome>  (128) 
acceptable

>  <fragmenstein_error>  (128) 


>  <distance_score>  (128) 
0.769916

>  <inchikey>  (128) 
LHENNTRPFOOADT-UHFFFAOYSA-N

>  <name>  (128) 
C47239-P208

>  <HIPPO Pose ID>  (128) 
131314

>  <Energy>  (128) 
-22.576852

>  <exports>  (128) 
['/opt/xchem-fragalysis-2/maxwin/BulkDock/OUTPUTS/openbind_a71ev2a_c1_knitwork_pure_165VWF8.sdf', '/opt/xchem-fragalysis-2/maxwin/BulkDock/OUTPUTS/openbind_a71ev2a_c1_knitwork_pure_1B07PTU.sdf', '/opt/xchem-fragalysis-2/maxwin/BulkDock/OUTPUTS/openbind_a71ev2a_c1_knitwork_pure_1B07UWE.sdf', '/opt/xchem-fragalysis-2/maxwin/openbind-hippo/a71ev2a/openbind_a71ev2a_c1_scaffold_products.sdf', '/opt/xchem-fragalysis-2/maxwin/openbind-hippo/a71ev2a/cycle_01/bulkdock/openbind_a71ev2a_c1_scaffold_products.sdf', '/opt/xchem-fragalysis-2/maxwin/openbind-hippo/a71ev2a/cycle_01/bulkdock/openbind_a71ev2a_c1_scaffolds.sdf']

>  <fragmenstein_runtime>  (128) 
18.006158

$$$$
C46501-P481
     RDKit          3D

 16 17  0  0  0  0  0  0  0  0999 V2000
    6.0905   13.7229    5.1059 N   0  0  0  0  0  0  0  0  0  0  0  0
    6.8733   13.6121    4.2572 C   0  0  0  0  0  0  0  0  0  0  0  0
    7.8391   13.5893    3.2093 C   0  0  0  0  0  0  0  0  0  0  0  0
    8.5883   14.7467    3.0066 C   0  0  0  0  0  0  0  0  0  0  0  0
    9.5233   14.8903    2.0424 N   0  0  0  0  0  0  0  0  0  0  0  0
    9.6619   13.8490    1.1999 C   0  0  0  0  0  0  0  0  0  0  0  0
    8.9615   12.6544    1.3237 C   0  0  0  0  0  0  0  0  0  0  0  0
    8.0564   12.4755    2.3806 C   0  0  0  0  0  0  0  0  0  0  0  0
    7.2985   11.2955    2.5162 N   0  0  0  0  0  0  0  0  0  0  0  0
    7.8445   10.0439    1.9782 C   0  0  0  0  0  0  0  0  0  0  0  0
    7.0277    8.8223    2.4374 C   0  0  2  0  0  0  0  0  0  0  0  0
    7.7302    7.5115    2.0153 C   0  0  0  0  0  0  0  0  0  0  0  0
    7.0279    6.8559    0.8316 C   0  0  0  0  0  0  0  0  0  0  0  0
    5.5522    6.5855    1.1407 C   0  0  0  0  0  0  0  0  0  0  0  0
    4.9437    7.5768    2.0273 N   0  0  0  0  0  0  0  0  0  0  0  0
    5.5794    8.8877    1.9195 C   0  0  0  0  0  0  0  0  0  0  0  0
  1  2  3  0
  2  3  1  0
  3  4  2  0
  4  5  1  0
  5  6  2  0
  6  7  1  0
  7  8  2  0
  8  9  1  0
  9 10  1  0
 11 10  1  6
 11 12  1  0
 12 13  1  0
 13 14  1  0
 14 15  1  0
 15 16  1  0
  8  3  1  0
 16 11  1  0
M  END
>  <ref_pdb>  (129) 
A4836a

>  <subsites>  (129) 
1 - Active Site,3 - A0541/A/147/1

>  <HIPPO Compound ID>  (129) 
48114

>  <energy_score>  (129) 
-21.250971

>  <fragmenstein_mode>  (129) 
expansion

>  <scratch_subdir>  (129) 
/opt/xchem-fragalysis-2/maxwin/BulkDock/SCRATCH/512156/C46501-P481

>  <smiles>  (129) 
N#Cc1cnccc1NC[C@@H]1CCCNC1

>  <alias>  (129) 
C46501-P481

>  <ref_mols>  (129) 
A4836a,A0428a

>  <inspiration_score>  (129) 
None

>  <tags>  (129) 
BulkDock Fragalysis export,fragmenstein_placed,openbind_a71ev2a_c1_scaffolds,openbind_a71ev2a_c1_knitwork_pure

>  <fragmenstein_outcome>  (129) 
acceptable

>  <fragmenstein_error>  (129) 


>  <distance_score>  (129) 
0.832478

>  <inchikey>  (129) 
DPEGMWUZRPHHNE-UHFFFAOYSA-N

>  <name>  (129) 
C46501-P481

>  <HIPPO Pose ID>  (129) 
131999

>  <Energy>  (129) 
44.513952

>  <exports>  (129) 
['/opt/xchem-fragalysis-2/maxwin/BulkDock/OUTPUTS/openbind_a71ev2a_c1_knitwork_pure_165VWF8.sdf', '/opt/xchem-fragalysis-2/maxwin/BulkDock/OUTPUTS/openbind_a71ev2a_c1_knitwork_pure_1B07PTU.sdf', '/opt/xchem-fragalysis-2/maxwin/BulkDock/OUTPUTS/openbind_a71ev2a_c1_knitwork_pure_1B07UWE.sdf', '/opt/xchem-fragalysis-2/maxwin/openbind-hippo/a71ev2a/openbind_a71ev2a_c1_scaffold_products.sdf', '/opt/xchem-fragalysis-2/maxwin/openbind-hippo/a71ev2a/cycle_01/bulkdock/openbind_a71ev2a_c1_scaffold_products.sdf', '/opt/xchem-fragalysis-2/maxwin/openbind-hippo/a71ev2a/cycle_01/bulkdock/openbind_a71ev2a_c1_scaffolds.sdf']

>  <fragmenstein_runtime>  (129) 
1.503731

$$$$
C51402-P120
     RDKit          3D

 19 19  0  0  0  0  0  0  0  0999 V2000
    6.7498   13.8616   24.8165 C   0  0  0  0  0  0  0  0  0  0  0  0
    7.1339   12.8299   25.7142 O   0  0  0  0  0  0  0  0  0  0  0  0
    7.4534   11.6684   25.0779 C   0  0  0  0  0  0  0  0  0  0  0  0
    8.5906   11.6041   24.2511 C   0  0  0  0  0  0  0  0  0  0  0  0
    9.4989   12.7791   24.0114 C   0  0  0  0  0  0  0  0  0  0  0  0
    8.8975   10.3907   23.6427 C   0  0  0  0  0  0  0  0  0  0  0  0
    8.0735    9.3147   23.8677 C   0  0  0  0  0  0  0  0  0  0  0  0
    6.9744    9.3578   24.6555 N   0  0  0  0  0  0  0  0  0  0  0  0
    6.6852   10.5162   25.2783 C   0  0  0  0  0  0  0  0  0  0  0  0
    5.5512   10.4401   26.0808 N   0  0  0  0  0  0  0  0  0  0  0  0
    5.1664   11.2327   27.3658 C   0  0  0  0  0  0  0  0  0  0  0  0
    5.7086   12.1210   27.8983 O   0  0  0  0  0  0  0  0  0  0  0  0
    3.7975   10.6959   27.8132 C   0  0  0  0  0  0  0  0  0  0  0  0
    3.3821   11.0130   29.2663 C   0  0  1  0  0  0  0  0  0  0  0  0
    3.3973   12.5071   29.6054 C   0  0  0  0  0  0  0  0  0  0  0  0
    1.9736   10.4826   29.5247 C   0  0  0  0  0  0  0  0  0  0  0  0
    1.6285   10.6253   30.8241 F   0  0  0  0  0  0  0  0  0  0  0  0
    1.8673    9.1683   29.2284 F   0  0  0  0  0  0  0  0  0  0  0  0
    1.0538   11.1373   28.7810 F   0  0  0  0  0  0  0  0  0  0  0  0
  1  2  1  0
  2  3  1  0
  3  4  2  0
  4  5  1  0
  4  6  1  0
  6  7  2  0
  7  8  1  0
  8  9  2  0
  9 10  1  0
 10 11  1  0
 11 12  2  0
 11 13  1  0
 13 14  1  0
 14 15  1  6
 14 16  1  0
 16 17  1  0
 16 18  1  0
 16 19  1  0
  9  3  1  0
M  END
>  <ref_pdb>  (130) 
A1445a

>  <subsites>  (130) 
1 - Active Site

>  <HIPPO Compound ID>  (130) 
50224

>  <energy_score>  (130) 
-21.311698

>  <fragmenstein_mode>  (130) 
expansion

>  <scratch_subdir>  (130) 
/opt/xchem-fragalysis-2/maxwin/BulkDock/SCRATCH/512156/C51402-P120

>  <smiles>  (130) 
COc1c(C)ccnc1NC(=O)C[C@@H](C)C(F)(F)F

>  <alias>  (130) 
C51402-P120

>  <ref_mols>  (130) 
A1445a,A3564a

>  <inspiration_score>  (130) 
None

>  <tags>  (130) 
BulkDock Fragalysis export,fragmenstein_placed,openbind_a71ev2a_c1_scaffolds,openbind_a71ev2a_c1_knitwork_pure

>  <fragmenstein_outcome>  (130) 
acceptable

>  <fragmenstein_error>  (130) 


>  <distance_score>  (130) 
0.991932

>  <inchikey>  (130) 
JWOBBCBWIOGWLH-UHFFFAOYSA-N

>  <name>  (130) 
C51402-P120

>  <HIPPO Pose ID>  (130) 
132608

>  <Energy>  (130) 
22.557499

>  <exports>  (130) 
['/opt/xchem-fragalysis-2/maxwin/BulkDock/OUTPUTS/openbind_a71ev2a_c1_knitwork_pure_165VWF8.sdf', '/opt/xchem-fragalysis-2/maxwin/BulkDock/OUTPUTS/openbind_a71ev2a_c1_knitwork_pure_1B07PTU.sdf', '/opt/xchem-fragalysis-2/maxwin/BulkDock/OUTPUTS/openbind_a71ev2a_c1_knitwork_pure_1B07UWE.sdf', '/opt/xchem-fragalysis-2/maxwin/openbind-hippo/a71ev2a/openbind_a71ev2a_c1_scaffold_products.sdf', '/opt/xchem-fragalysis-2/maxwin/openbind-hippo/a71ev2a/cycle_01/bulkdock/openbind_a71ev2a_c1_scaffold_products.sdf', '/opt/xchem-fragalysis-2/maxwin/openbind-hippo/a71ev2a/cycle_01/bulkdock/openbind_a71ev2a_c1_scaffolds.sdf']

>  <fragmenstein_runtime>  (130) 
13.581502

$$$$
C51406-P120
     RDKit          3D

 19 19  0  0  0  0  0  0  0  0999 V2000
    2.9927   12.4547   30.0087 C   0  0  0  0  0  0  0  0  0  0  0  0
    3.0464   10.9776   29.6049 C   0  0  2  0  0  0  0  0  0  0  0  0
    3.5367   10.7223   28.1688 C   0  0  0  0  0  0  0  0  0  0  0  0
    4.8416   11.4180   27.7948 C   0  0  0  0  0  0  0  0  0  0  0  0
    5.2507   12.3503   28.3632 O   0  0  0  0  0  0  0  0  0  0  0  0
    5.3698   10.7053   26.5244 N   0  0  0  0  0  0  0  0  0  0  0  0
    6.4062   11.0360   25.6791 C   0  0  0  0  0  0  0  0  0  0  0  0
    7.0064   10.0562   24.9247 C   0  0  0  0  0  0  0  0  0  0  0  0
    8.1108   10.3986   24.1528 C   0  0  0  0  0  0  0  0  0  0  0  0
    8.8556    9.3884   23.4791 C   0  0  0  0  0  0  0  0  0  0  0  0
    9.4638    8.5750   22.9257 N   0  0  0  0  0  0  0  0  0  0  0  0
    8.5306   11.7166   24.0844 C   0  0  0  0  0  0  0  0  0  0  0  0
    7.8495   12.6280   24.8550 C   0  0  0  0  0  0  0  0  0  0  0  0
    8.4450   14.4082   24.8594 Br  0  0  0  0  0  0  0  0  0  0  0  0
    6.8344   12.3037   25.6729 N   0  0  0  0  0  0  0  0  0  0  0  0
    1.6499   10.3939   29.7495 C   0  0  0  0  0  0  0  0  0  0  0  0
    1.2222   10.4652   31.0278 F   0  0  0  0  0  0  0  0  0  0  0  0
    1.6154    9.0936   29.3835 F   0  0  0  0  0  0  0  0  0  0  0  0
    0.7625   11.0541   28.9730 F   0  0  0  0  0  0  0  0  0  0  0  0
  2  1  1  6
  2  3  1  0
  3  4  1  0
  4  5  2  0
  4  6  1  0
  6  7  1  0
  7  8  2  0
  8  9  1  0
  9 10  1  0
 10 11  3  0
  9 12  2  0
 12 13  1  0
 13 14  1  0
 13 15  2  0
  2 16  1  0
 16 17  1  0
 16 18  1  0
 16 19  1  0
 15  7  1  0
M  END
>  <ref_pdb>  (131) 
A1445a

>  <subsites>  (131) 
1 - Active Site

>  <HIPPO Compound ID>  (131) 
50761

>  <energy_score>  (131) 
-3.578779

>  <fragmenstein_mode>  (131) 
expansion

>  <scratch_subdir>  (131) 
/opt/xchem-fragalysis-2/maxwin/BulkDock/SCRATCH/512156/C51406-P120

>  <smiles>  (131) 
C[C@H](CC(=O)Nc1cc(C#N)cc(Br)n1)C(F)(F)F

>  <alias>  (131) 
C51406-P120

>  <ref_mols>  (131) 
A1445a,A3564a

>  <inspiration_score>  (131) 
None

>  <tags>  (131) 
BulkDock Fragalysis export,fragmenstein_placed,openbind_a71ev2a_c1_scaffolds,openbind_a71ev2a_c1_knitwork_pure

>  <fragmenstein_outcome>  (131) 
acceptable

>  <fragmenstein_error>  (131) 


>  <distance_score>  (131) 
0.725457

>  <inchikey>  (131) 
FTCITYYSQNDUFP-UHFFFAOYSA-N

>  <name>  (131) 
C51406-P120

>  <HIPPO Pose ID>  (131) 
132620

>  <Energy>  (131) 
-29.961397

>  <exports>  (131) 
['/opt/xchem-fragalysis-2/maxwin/BulkDock/OUTPUTS/openbind_a71ev2a_c1_knitwork_pure_165VWF8.sdf', '/opt/xchem-fragalysis-2/maxwin/BulkDock/OUTPUTS/openbind_a71ev2a_c1_knitwork_pure_1B07PTU.sdf', '/opt/xchem-fragalysis-2/maxwin/BulkDock/OUTPUTS/openbind_a71ev2a_c1_knitwork_pure_1B07UWE.sdf', '/opt/xchem-fragalysis-2/maxwin/openbind-hippo/a71ev2a/openbind_a71ev2a_c1_scaffold_products.sdf', '/opt/xchem-fragalysis-2/maxwin/openbind-hippo/a71ev2a/cycle_01/bulkdock/openbind_a71ev2a_c1_scaffold_products.sdf', '/opt/xchem-fragalysis-2/maxwin/openbind-hippo/a71ev2a/cycle_01/bulkdock/openbind_a71ev2a_c1_scaffolds.sdf']

>  <fragmenstein_runtime>  (131) 
2.494517

$$$$
C51421-P120
     RDKit          3D

 18 18  0  0  0  0  0  0  0  0999 V2000
    3.2388   12.5755   29.7008 C   0  0  0  0  0  0  0  0  0  0  0  0
    2.9678   11.3695   28.7925 C   0  0  1  0  0  0  0  0  0  0  0  0
    4.2273   10.5414   28.4807 C   0  0  0  0  0  0  0  0  0  0  0  0
    5.3387   11.3890   27.8362 C   0  0  0  0  0  0  0  0  0  0  0  0
    5.8025   12.2987   28.4062 O   0  0  0  0  0  0  0  0  0  0  0  0
    5.6684   10.8048   26.4305 N   0  0  0  0  0  0  0  0  0  0  0  0
    6.6737   11.1550   25.5077 C   0  0  0  0  0  0  0  0  0  0  0  0
    7.2260   10.1245   24.7488 C   0  0  0  0  0  0  0  0  0  0  0  0
    8.3326   10.3768   23.9461 C   0  0  0  0  0  0  0  0  0  0  0  0
    8.9475    9.4072   23.2246 O   0  0  0  0  0  0  0  0  0  0  0  0
    8.8562   11.6529   23.8901 C   0  0  0  0  0  0  0  0  0  0  0  0
    8.3166   12.6906   24.5408 N   0  0  0  0  0  0  0  0  0  0  0  0
    7.2388   12.4241   25.3233 C   0  0  0  0  0  0  0  0  0  0  0  0
    6.6304   13.8789   25.9747 Cl  0  0  0  0  0  0  0  0  0  0  0  0
    1.8695   10.5333   29.4352 C   0  0  0  0  0  0  0  0  0  0  0  0
    2.1580   10.2014   30.7108 F   0  0  0  0  0  0  0  0  0  0  0  0
    1.6340    9.3914   28.7556 F   0  0  0  0  0  0  0  0  0  0  0  0
    0.7085   11.2285   29.4456 F   0  0  0  0  0  0  0  0  0  0  0  0
  2  1  1  1
  2  3  1  0
  3  4  1  0
  4  5  2  0
  4  6  1  0
  6  7  1  0
  7  8  2  0
  8  9  1  0
  9 10  1  0
  9 11  2  0
 11 12  1  0
 12 13  2  0
 13 14  1  0
  2 15  1  0
 15 16  1  0
 15 17  1  0
 15 18  1  0
 13  7  1  0
M  END
>  <ref_pdb>  (132) 
A1445a

>  <subsites>  (132) 
1 - Active Site

>  <HIPPO Compound ID>  (132) 
3682

>  <energy_score>  (132) 
-9.535579

>  <fragmenstein_mode>  (132) 
expansion

>  <scratch_subdir>  (132) 
/opt/xchem-fragalysis-2/maxwin/BulkDock/SCRATCH/512156/C51421-P120

>  <smiles>  (132) 
C[C@@H](CC(=O)Nc1cc(O)cnc1Cl)C(F)(F)F

>  <alias>  (132) 
C51421-P120

>  <ref_mols>  (132) 
A1445a,A3564a

>  <inspiration_score>  (132) 
None

>  <tags>  (132) 
BulkDock Fragalysis export,fragmenstein_placed,openbind_a71ev2a_c1_scaffolds,openbind_a71ev2a_c1_knitwork_pure

>  <fragmenstein_outcome>  (132) 
acceptable

>  <fragmenstein_error>  (132) 


>  <distance_score>  (132) 
0.893702

>  <inchikey>  (132) 
QWVLYQDYSGRLDZ-UHFFFAOYSA-N

>  <name>  (132) 
C51421-P120

>  <HIPPO Pose ID>  (132) 
132634

>  <Energy>  (132) 
51.884334

>  <exports>  (132) 
['/opt/xchem-fragalysis-2/maxwin/BulkDock/OUTPUTS/openbind_a71ev2a_c1_knitwork_pure_165VWF8.sdf', '/opt/xchem-fragalysis-2/maxwin/BulkDock/OUTPUTS/openbind_a71ev2a_c1_knitwork_pure_1B07PTU.sdf', '/opt/xchem-fragalysis-2/maxwin/BulkDock/OUTPUTS/openbind_a71ev2a_c1_knitwork_pure_1B07UWE.sdf', '/opt/xchem-fragalysis-2/maxwin/openbind-hippo/a71ev2a/openbind_a71ev2a_c1_scaffold_products.sdf', '/opt/xchem-fragalysis-2/maxwin/openbind-hippo/a71ev2a/cycle_01/bulkdock/openbind_a71ev2a_c1_scaffold_products.sdf', '/opt/xchem-fragalysis-2/maxwin/openbind-hippo/a71ev2a/cycle_01/bulkdock/openbind_a71ev2a_c1_scaffolds.sdf']

>  <fragmenstein_runtime>  (132) 
3.072278

$$$$
C51187-P481
     RDKit          3D

 20 22  0  0  0  0  0  0  0  0999 V2000
   18.7555    1.4508   21.5091 C   0  0  0  0  0  0  0  0  0  0  0  0
   18.3885    0.0343   21.3126 C   0  0  0  0  0  0  0  0  0  0  0  0
   17.7979   -0.4866   20.2542 N   0  0  0  0  0  0  0  0  0  0  0  0
   17.6964   -1.8459   20.4453 N   0  0  0  0  0  0  0  0  0  0  0  0
   18.2004   -2.1249   21.6271 C   0  0  0  0  0  0  0  0  0  0  0  0
   18.3514   -3.3384   22.3524 C   0  0  0  0  0  0  0  0  0  0  0  0
   18.8337   -3.3068   23.6109 C   0  0  0  0  0  0  0  0  0  0  0  0
   19.2238   -2.0472   24.2404 C   0  0  0  0  0  0  0  0  0  0  0  0
   19.6514   -1.9625   25.6721 C   0  0  0  0  0  0  0  0  0  0  0  0
   19.1124   -1.2719   26.4403 O   0  0  0  0  0  0  0  0  0  0  0  0
   20.8629   -2.9003   25.8490 N   0  0  0  0  0  0  0  0  0  0  0  0
   21.7244   -3.1130   26.9855 C   0  0  0  0  0  0  0  0  0  0  0  0
   22.9662   -2.2145   26.9466 C   0  0  1  0  0  0  0  0  0  0  0  0
   22.6052   -0.7204   27.0471 C   0  0  0  0  0  0  0  0  0  0  0  0
   23.7297    0.1155   27.6609 C   0  0  0  0  0  0  0  0  0  0  0  0
   25.0951   -0.5185   27.4284 C   0  0  0  0  0  0  0  0  0  0  0  0
   25.2099   -1.8649   27.9899 N   0  0  0  0  0  0  0  0  0  0  0  0
   23.9424   -2.5967   28.0663 C   0  0  0  0  0  0  0  0  0  0  0  0
   19.1226   -0.9027   23.5391 C   0  0  0  0  0  0  0  0  0  0  0  0
   18.6190   -0.9540   22.2416 N   0  0  0  0  0  0  0  0  0  0  0  0
  1  2  1  0
  2  3  2  0
  3  4  1  0
  4  5  2  0
  5  6  1  0
  6  7  2  0
  7  8  1  0
  8  9  1  0
  9 10  2  0
  9 11  1  0
 11 12  1  0
 13 12  1  1
 13 14  1  0
 14 15  1  0
 15 16  1  0
 16 17  1  0
 17 18  1  0
  8 19  2  0
 19 20  1  0
 20  2  1  0
 20  5  1  0
 18 13  1  0
M  END
>  <ref_pdb>  (133) 
A4836a

>  <subsites>  (133) 
1 - Active Site,2 - A3977/A/202/1

>  <HIPPO Compound ID>  (133) 
58974

>  <energy_score>  (133) 
-16.140233

>  <fragmenstein_mode>  (133) 
expansion

>  <scratch_subdir>  (133) 
/opt/xchem-fragalysis-2/maxwin/BulkDock/SCRATCH/512156/C51187-P481

>  <smiles>  (133) 
Cc1nnc2ccc(C(=O)NC[C@H]3CCCNC3)cn12

>  <alias>  (133) 
C51187-P481

>  <ref_mols>  (133) 
A4836a,A1293a

>  <inspiration_score>  (133) 
None

>  <tags>  (133) 
BulkDock Fragalysis export,fragmenstein_placed,openbind_a71ev2a_c1_scaffolds,openbind_a71ev2a_c1_knitwork_pure

>  <fragmenstein_outcome>  (133) 
acceptable

>  <fragmenstein_error>  (133) 


>  <distance_score>  (133) 
0.247057

>  <inchikey>  (133) 
LHSJJHNLOFSIIV-UHFFFAOYSA-N

>  <name>  (133) 
C51187-P481

>  <HIPPO Pose ID>  (133) 
132831

>  <Energy>  (133) 
26.819779

>  <exports>  (133) 
['/opt/xchem-fragalysis-2/maxwin/BulkDock/OUTPUTS/openbind_a71ev2a_c1_knitwork_pure_165VWF8.sdf', '/opt/xchem-fragalysis-2/maxwin/BulkDock/OUTPUTS/openbind_a71ev2a_c1_knitwork_pure_1B07PTU.sdf', '/opt/xchem-fragalysis-2/maxwin/BulkDock/OUTPUTS/openbind_a71ev2a_c1_knitwork_pure_1B07UWE.sdf', '/opt/xchem-fragalysis-2/maxwin/openbind-hippo/a71ev2a/openbind_a71ev2a_c1_scaffold_products.sdf', '/opt/xchem-fragalysis-2/maxwin/openbind-hippo/a71ev2a/cycle_01/bulkdock/openbind_a71ev2a_c1_scaffold_products.sdf', '/opt/xchem-fragalysis-2/maxwin/openbind-hippo/a71ev2a/cycle_01/bulkdock/openbind_a71ev2a_c1_scaffolds.sdf']

>  <fragmenstein_runtime>  (133) 
1.396176

$$$$
C95583-P404
     RDKit          3D

 20 22  0  0  0  0  0  0  0  0999 V2000
   13.1170   15.3970   26.5327 O   0  0  0  0  0  0  0  0  0  0  0  0
   12.0835   15.7059   26.1022 C   0  0  0  0  0  0  0  0  0  0  0  0
   11.5328   15.6094   24.6757 N   0  0  0  0  0  0  0  0  0  0  0  0
   12.1097   15.0164   23.4764 C   0  0  2  0  0  0  0  0  0  0  0  0
   11.9292   15.7950   22.1822 C   0  0  0  0  0  0  0  0  0  0  0  0
   10.7700   15.3130   21.3180 C   0  0  0  0  0  0  0  0  0  0  0  0
    9.6372   14.7901   22.1822 C   0  0  0  0  0  0  0  0  0  0  0  0
   10.0983   13.6663   22.9915 N   0  0  0  0  0  0  0  0  0  0  0  0
    9.1347   12.8297   23.6140 C   0  0  0  0  0  0  0  0  0  0  0  0
    9.3577   11.4616   23.7188 C   0  0  0  0  0  0  0  0  0  0  0  0
    8.4843   10.6715   24.4521 C   0  0  0  0  0  0  0  0  0  0  0  0
    7.4173   11.2813   25.0835 C   0  0  0  0  0  0  0  0  0  0  0  0
    7.1481   12.5990   24.9861 N   0  0  0  0  0  0  0  0  0  0  0  0
    7.9948   13.3379   24.2302 C   0  0  0  0  0  0  0  0  0  0  0  0
   11.3922   13.6730   23.5446 C   0  0  0  0  0  0  0  0  0  0  0  0
   11.8355   12.7993   24.2937 O   0  0  0  0  0  0  0  0  0  0  0  0
   10.9658   16.2080   26.9547 C   0  0  0  0  0  0  0  0  0  0  0  0
   11.0467   16.7777   28.1698 C   0  0  0  0  0  0  0  0  0  0  0  0
    9.5430   16.8613   28.3257 C   0  0  0  0  0  0  0  0  0  0  0  0
    9.4640   16.0861   26.9904 C   0  0  0  0  0  0  0  0  0  0  0  0
  1  2  2  0
  2  3  1  0
  4  3  1  1
  4  5  1  0
  5  6  1  0
  6  7  1  0
  7  8  1  0
  8  9  1  0
  9 10  2  0
 10 11  1  0
 11 12  2  0
 12 13  1  0
 13 14  2  0
  8 15  1  0
 15 16  2  0
  2 17  1  0
 17 18  2  0
 18 19  1  0
 19 20  1  0
 15  4  1  0
 20 17  1  0
 14  9  1  0
M  END
>  <ref_pdb>  (134) 
A4563a

>  <subsites>  (134) 
1 - Active Site,3 - A0541/A/147/1

>  <HIPPO Compound ID>  (134) 
55828

>  <energy_score>  (134) 
-3.878791

>  <fragmenstein_mode>  (134) 
expansion

>  <scratch_subdir>  (134) 
/opt/xchem-fragalysis-2/maxwin/BulkDock/SCRATCH/512156/C95583-P404

>  <smiles>  (134) 
O=C(N[C@@H]1CCCN(c2cccnc2)C1=O)C1=CCC1

>  <alias>  (134) 
C95583-P404

>  <ref_mols>  (134) 
A4563a,A0428a

>  <inspiration_score>  (134) 
None

>  <tags>  (134) 
BulkDock Fragalysis export,fragmenstein_placed,openbind_a71ev2a_c1_scaffolds,openbind_a71ev2a_c1_knitwork_pure

>  <fragmenstein_outcome>  (134) 
acceptable

>  <fragmenstein_error>  (134) 


>  <distance_score>  (134) 
0.755174

>  <inchikey>  (134) 
CXKCEZSQRXABEZ-UHFFFAOYSA-N

>  <name>  (134) 
C95583-P404

>  <HIPPO Pose ID>  (134) 
133114

>  <Energy>  (134) 
73.098765

>  <exports>  (134) 
['/opt/xchem-fragalysis-2/maxwin/BulkDock/OUTPUTS/openbind_a71ev2a_c1_knitwork_pure_165VWF8.sdf', '/opt/xchem-fragalysis-2/maxwin/BulkDock/OUTPUTS/openbind_a71ev2a_c1_knitwork_pure_1B07PTU.sdf', '/opt/xchem-fragalysis-2/maxwin/BulkDock/OUTPUTS/openbind_a71ev2a_c1_knitwork_pure_1B07UWE.sdf', '/opt/xchem-fragalysis-2/maxwin/openbind-hippo/a71ev2a/openbind_a71ev2a_c1_scaffold_products.sdf', '/opt/xchem-fragalysis-2/maxwin/openbind-hippo/a71ev2a/cycle_01/bulkdock/openbind_a71ev2a_c1_scaffold_products.sdf', '/opt/xchem-fragalysis-2/maxwin/openbind-hippo/a71ev2a/cycle_01/bulkdock/openbind_a71ev2a_c1_scaffolds.sdf']

>  <fragmenstein_runtime>  (134) 
4.443161

$$$$
C53037-P106
     RDKit          3D

 18 20  0  0  0  0  0  0  0  0999 V2000
   13.0248   10.1097   24.8750 O   0  0  0  0  0  0  0  0  0  0  0  0
   12.5442   11.2448   24.8557 C   0  0  0  0  0  0  0  0  0  0  0  0
   13.3701   12.4945   25.0284 C   0  0  0  0  0  0  0  0  0  0  0  0
   14.8401   12.2012   25.3413 C   0  0  0  0  0  0  0  0  0  0  0  0
   15.0354   11.5625   26.6542 N   0  0  0  0  0  0  0  0  0  0  0  0
   16.4572   11.2235   26.8528 C   0  0  0  0  0  0  0  0  0  0  0  0
   17.1131   12.4909   27.3733 C   0  0  0  0  0  0  0  0  0  0  0  0
   15.9904   13.2852   28.0118 C   0  0  0  0  0  0  0  0  0  0  0  0
   14.7482   12.4533   27.7895 C   0  0  0  0  0  0  0  0  0  0  0  0
   11.0797   11.3822   24.6333 C   0  0  0  0  0  0  0  0  0  0  0  0
   10.4091   10.2969   24.0573 C   0  0  0  0  0  0  0  0  0  0  0  0
    9.0220   10.2336   24.0737 C   0  0  0  0  0  0  0  0  0  0  0  0
    8.3574   11.2315   24.7666 C   0  0  0  0  0  0  0  0  0  0  0  0
    7.0543   11.3720   25.1496 N   0  0  0  0  0  0  0  0  0  0  0  0
    6.9330   12.5604   25.8015 C   0  0  0  0  0  0  0  0  0  0  0  0
    8.0954   13.1575   25.9241 N   0  0  0  0  0  0  0  0  0  0  0  0
    8.9906   12.3512   25.2756 C   0  0  0  0  0  0  0  0  0  0  0  0
   10.3775   12.4754   25.1597 C   0  0  0  0  0  0  0  0  0  0  0  0
  1  2  2  0
  2  3  1  0
  3  4  1  0
  4  5  1  0
  5  6  1  0
  6  7  1  0
  7  8  1  0
  8  9  1  0
  2 10  1  0
 10 11  2  0
 11 12  1  0
 12 13  2  0
 13 14  1  0
 14 15  1  0
 15 16  2  0
 16 17  1  0
 17 18  2  0
  9  5  1  0
 18 10  1  0
 17 13  1  0
M  END
>  <ref_pdb>  (135) 
A1140a

>  <subsites>  (135) 
1 - Active Site

>  <HIPPO Compound ID>  (135) 
128372

>  <energy_score>  (135) 
-30.630904

>  <fragmenstein_mode>  (135) 
expansion

>  <scratch_subdir>  (135) 
/opt/xchem-fragalysis-2/maxwin/BulkDock/SCRATCH/512156/C53037-P106

>  <smiles>  (135) 
O=C(CCN1CCCC1)c1ccc2[nH]cnc2c1

>  <alias>  (135) 
C53037-P106

>  <ref_mols>  (135) 
A1140a,A4874b

>  <inspiration_score>  (135) 
None

>  <tags>  (135) 
BulkDock Fragalysis export,fragmenstein_placed,openbind_a71ev2a_c1_scaffolds,openbind_a71ev2a_c1_knitwork_pure

>  <fragmenstein_outcome>  (135) 
acceptable

>  <fragmenstein_error>  (135) 


>  <distance_score>  (135) 
0.997813

>  <inchikey>  (135) 
AEAKCWJGPKNEGI-UHFFFAOYSA-N

>  <name>  (135) 
C53037-P106

>  <HIPPO Pose ID>  (135) 
134343

>  <Energy>  (135) 
39.758476

>  <exports>  (135) 
['/opt/xchem-fragalysis-2/maxwin/BulkDock/OUTPUTS/openbind_a71ev2a_c1_knitwork_pure_165VWF8.sdf', '/opt/xchem-fragalysis-2/maxwin/BulkDock/OUTPUTS/openbind_a71ev2a_c1_knitwork_pure_1B07PTU.sdf', '/opt/xchem-fragalysis-2/maxwin/BulkDock/OUTPUTS/openbind_a71ev2a_c1_knitwork_pure_1B07UWE.sdf', '/opt/xchem-fragalysis-2/maxwin/openbind-hippo/a71ev2a/openbind_a71ev2a_c1_scaffold_products.sdf', '/opt/xchem-fragalysis-2/maxwin/openbind-hippo/a71ev2a/cycle_01/bulkdock/openbind_a71ev2a_c1_scaffold_products.sdf', '/opt/xchem-fragalysis-2/maxwin/openbind-hippo/a71ev2a/cycle_01/bulkdock/openbind_a71ev2a_c1_scaffolds.sdf']

>  <fragmenstein_runtime>  (135) 
6.772695

$$$$
C68901-P103
     RDKit          3D

 22 25  0  0  0  0  0  0  0  0999 V2000
   18.0841   -6.5031   22.8888 O   0  0  0  0  0  0  0  0  0  0  0  0
   19.0865   -5.9035   22.9957 C   0  0  0  0  0  0  0  0  0  0  0  0
   19.7671   -4.8980   22.0248 N   0  0  0  0  0  0  0  0  0  0  0  0
   19.4214   -4.5135   20.7446 C   0  0  0  0  0  0  0  0  0  0  0  0
   18.3023   -5.0406   20.1280 C   0  0  0  0  0  0  0  0  0  0  0  0
   17.8308   -4.4821   18.9375 C   0  0  0  0  0  0  0  0  0  0  0  0
   16.5837   -4.8921   18.4600 N   0  0  0  0  0  0  0  0  0  0  0  0
   15.7231   -3.8542   17.8717 C   0  0  0  0  0  0  0  0  0  0  0  0
   14.2984   -4.3752   17.5910 C   0  0  0  0  0  0  0  0  0  0  0  0
   14.2555   -5.6401   16.8353 N   0  0  0  0  0  0  0  0  0  0  0  0
   15.1249   -6.6453   17.4741 C   0  0  0  0  0  0  0  0  0  0  0  0
   16.5767   -6.1707   17.7263 C   0  0  0  0  0  0  0  0  0  0  0  0
   18.6005   -3.4844   18.3515 C   0  0  0  0  0  0  0  0  0  0  0  0
   19.7569   -3.0735   18.9960 C   0  0  0  0  0  0  0  0  0  0  0  0
   20.1780   -3.5520   20.1892 N   0  0  0  0  0  0  0  0  0  0  0  0
   20.0177   -5.9664   24.2851 C   0  0  1  0  0  0  0  0  0  0  0  0
   20.1999   -4.5965   24.9030 N   0  0  0  0  0  0  0  0  0  0  0  0
   19.2267   -4.9603   25.9675 C   0  0  0  0  0  0  0  0  0  0  0  0
   19.4602   -6.4033   25.6141 C   0  0  0  0  0  0  0  0  0  0  0  0
   18.3289   -7.3894   25.7456 C   0  0  0  0  0  0  0  0  0  0  0  0
   18.9962   -7.8425   27.0703 C   0  0  0  0  0  0  0  0  0  0  0  0
   20.3216   -7.2292   26.5485 C   0  0  0  0  0  0  0  0  0  0  0  0
  1  2  2  0
  2  3  1  0
  3  4  1  0
  4  5  2  0
  5  6  1  0
  6  7  1  0
  7  8  1  0
  8  9  1  0
  9 10  1  0
 10 11  1  0
 11 12  1  0
  6 13  2  0
 13 14  1  0
 14 15  2  0
 16  2  1  6
 16 17  1  0
 17 18  1  0
 18 19  1  0
 19 20  1  0
 20 21  1  0
 21 22  1  0
 15  4  1  0
 19 16  1  0
 12  7  1  0
 22 19  1  0
M  END
>  <ref_pdb>  (136) 
A1105b

>  <subsites>  (136) 
2 - A3977/A/202/1,4 - A0525/A/246/1

>  <HIPPO Compound ID>  (136) 
73290

>  <energy_score>  (136) 
-42.020877

>  <fragmenstein_mode>  (136) 
expansion

>  <scratch_subdir>  (136) 
/opt/xchem-fragalysis-2/maxwin/BulkDock/SCRATCH/512156/C68901-P103

>  <smiles>  (136) 
O=C(Nc1cc(N2CCNCC2)ccn1)[C@H]1NCC12CCC2

>  <alias>  (136) 
C68901-P103

>  <ref_mols>  (136) 
A0469a,A1105b

>  <inspiration_score>  (136) 
None

>  <tags>  (136) 
BulkDock Fragalysis export,fragmenstein_placed,openbind_a71ev2a_c1_scaffolds,openbind_a71ev2a_c1_knitwork_pure

>  <fragmenstein_outcome>  (136) 
acceptable

>  <fragmenstein_error>  (136) 


>  <distance_score>  (136) 
0.573733

>  <inchikey>  (136) 
AAOYCWPUIVHARW-UHFFFAOYSA-N

>  <name>  (136) 
C68901-P103

>  <HIPPO Pose ID>  (136) 
134680

>  <Energy>  (136) 
115.886854

>  <exports>  (136) 
['/opt/xchem-fragalysis-2/maxwin/BulkDock/OUTPUTS/openbind_a71ev2a_c1_knitwork_pure_165VWF8.sdf', '/opt/xchem-fragalysis-2/maxwin/BulkDock/OUTPUTS/openbind_a71ev2a_c1_knitwork_pure_1B07PTU.sdf', '/opt/xchem-fragalysis-2/maxwin/BulkDock/OUTPUTS/openbind_a71ev2a_c1_knitwork_pure_1B07UWE.sdf', '/opt/xchem-fragalysis-2/maxwin/openbind-hippo/a71ev2a/openbind_a71ev2a_c1_scaffold_products.sdf', '/opt/xchem-fragalysis-2/maxwin/openbind-hippo/a71ev2a/cycle_01/bulkdock/openbind_a71ev2a_c1_scaffold_products.sdf', '/opt/xchem-fragalysis-2/maxwin/openbind-hippo/a71ev2a/cycle_01/bulkdock/openbind_a71ev2a_c1_scaffolds.sdf']

>  <fragmenstein_runtime>  (136) 
9.772719

$$$$
C11630-P405
     RDKit          3D

  9  9  0  0  0  0  0  0  0  0999 V2000
    6.2870   14.7672   24.0628 C   0  0  0  0  0  0  0  0  0  0  0  0
    7.3379   14.5862   25.1419 C   0  0  0  0  0  0  0  0  0  0  0  0
    8.4211   13.6271   24.6902 C   0  0  0  0  0  0  0  0  0  0  0  0
    9.4763   14.0611   24.2292 O   0  0  0  0  0  0  0  0  0  0  0  0
    8.1883   12.1947   24.8106 C   0  0  0  0  0  0  0  0  0  0  0  0
    7.1027   11.4836   25.3651 C   0  0  0  0  0  0  0  0  0  0  0  0
    7.2657   10.1583   25.3140 N   0  0  0  0  0  0  0  0  0  0  0  0
    8.4635   10.0111   24.7068 N   0  0  0  0  0  0  0  0  0  0  0  0
    9.0420   11.2000   24.3804 C   0  0  0  0  0  0  0  0  0  0  0  0
  1  2  1  0
  2  3  1  0
  3  4  2  0
  3  5  1  0
  5  6  1  0
  6  7  2  0
  7  8  1  0
  8  9  1  0
  9  5  2  0
M  END
>  <ref_pdb>  (137) 
A4570a

>  <subsites>  (137) 
1 - Active Site

>  <HIPPO Compound ID>  (137) 
46480

>  <energy_score>  (137) 
-14.541996

>  <fragmenstein_mode>  (137) 
expansion

>  <scratch_subdir>  (137) 
/opt/xchem-fragalysis-2/maxwin/BulkDock/SCRATCH/512156/C11630-P405

>  <smiles>  (137) 
CCC(=O)c1cn[nH]c1

>  <alias>  (137) 
C11630-P405

>  <ref_mols>  (137) 
A0556a,A4570a

>  <inspiration_score>  (137) 
None

>  <tags>  (137) 
BulkDock Fragalysis export,fragmenstein_placed,openbind_a71ev2a_c1_scaffolds,openbind_a71ev2a_c1_knitwork_pure

>  <fragmenstein_outcome>  (137) 
acceptable

>  <fragmenstein_error>  (137) 


>  <distance_score>  (137) 
0.676458

>  <inchikey>  (137) 
PYKGBZNJSJEWFO-UHFFFAOYSA-N

>  <name>  (137) 
C11630-P405

>  <HIPPO Pose ID>  (137) 
135376

>  <Energy>  (137) 
17.638817

>  <exports>  (137) 
['/opt/xchem-fragalysis-2/maxwin/BulkDock/OUTPUTS/openbind_a71ev2a_c1_knitwork_pure_165VWF8.sdf', '/opt/xchem-fragalysis-2/maxwin/BulkDock/OUTPUTS/openbind_a71ev2a_c1_knitwork_pure_1B07PTU.sdf', '/opt/xchem-fragalysis-2/maxwin/BulkDock/OUTPUTS/openbind_a71ev2a_c1_knitwork_pure_1B07UWE.sdf', '/opt/xchem-fragalysis-2/maxwin/openbind-hippo/a71ev2a/openbind_a71ev2a_c1_scaffold_products.sdf', '/opt/xchem-fragalysis-2/maxwin/openbind-hippo/a71ev2a/cycle_01/bulkdock/openbind_a71ev2a_c1_scaffold_products.sdf', '/opt/xchem-fragalysis-2/maxwin/openbind-hippo/a71ev2a/cycle_01/bulkdock/openbind_a71ev2a_c1_scaffolds.sdf']

>  <fragmenstein_runtime>  (137) 
0.984379

$$$$
C45658-P207
     RDKit          3D

 16 18  0  0  0  0  0  0  0  0999 V2000
    7.2558   14.6040   22.9767 C   0  0  0  0  0  0  0  0  0  0  0  0
    6.8421   13.5240   23.6396 N   0  0  0  0  0  0  0  0  0  0  0  0
    7.9029   13.1878   24.3824 N   0  0  0  0  0  0  0  0  0  0  0  0
    8.0850   11.8278   24.8218 C   0  0  0  0  0  0  0  0  0  0  0  0
    6.8479   11.1368   25.3539 C   0  0  0  0  0  0  0  0  0  0  0  0
    7.0484    9.6730   25.0249 C   0  0  0  0  0  0  0  0  0  0  0  0
    8.2050    9.5517   24.0467 C   0  0  0  0  0  0  0  0  0  0  0  0
    8.6139   10.9595   23.6945 C   0  0  0  0  0  0  0  0  0  0  0  0
    8.9108   14.0999   24.3348 C   0  0  0  0  0  0  0  0  0  0  0  0
    8.5800   14.9661   23.3165 C   0  0  0  0  0  0  0  0  0  0  0  0
    9.4072   16.0585   22.7230 C   0  0  1  0  0  0  0  0  0  0  0  0
   10.8595   16.0737   23.2149 C   0  0  0  0  0  0  0  0  0  0  0  0
   11.7173   15.0120   22.5301 C   0  0  0  0  0  0  0  0  0  0  0  0
   11.6199   15.1425   21.0134 C   0  0  0  0  0  0  0  0  0  0  0  0
   10.2310   15.0628   20.5702 N   0  0  0  0  0  0  0  0  0  0  0  0
    9.4017   16.1001   21.1835 C   0  0  0  0  0  0  0  0  0  0  0  0
  1  2  2  0
  2  3  1  0
  3  4  1  0
  4  5  1  0
  5  6  1  0
  6  7  1  0
  7  8  1  0
  3  9  1  0
  9 10  2  0
 11 10  1  6
 11 12  1  0
 12 13  1  0
 13 14  1  0
 14 15  1  0
 15 16  1  0
 10  1  1  0
 16 11  1  0
  8  4  1  0
M  END
>  <ref_pdb>  (138) 
A3706a

>  <subsites>  (138) 
1 - Active Site

>  <HIPPO Compound ID>  (138) 
47320

>  <energy_score>  (138) 
-28.729123

>  <fragmenstein_mode>  (138) 
expansion

>  <scratch_subdir>  (138) 
/opt/xchem-fragalysis-2/maxwin/BulkDock/SCRATCH/512156/C45658-P207

>  <smiles>  (138) 
c1nn(C2CCCC2)cc1[C@H]1CCCNC1

>  <alias>  (138) 
C45658-P207

>  <ref_mols>  (138) 
A0556a,A3706a

>  <inspiration_score>  (138) 
None

>  <tags>  (138) 
BulkDock Fragalysis export,fragmenstein_placed,openbind_a71ev2a_c1_scaffolds,openbind_a71ev2a_c1_knitwork_pure

>  <fragmenstein_outcome>  (138) 
acceptable

>  <fragmenstein_error>  (138) 


>  <distance_score>  (138) 
0.877346

>  <inchikey>  (138) 
PWXDIHDWBIALIW-UHFFFAOYSA-N

>  <name>  (138) 
C45658-P207

>  <HIPPO Pose ID>  (138) 
135563

>  <Energy>  (138) 
38.604871

>  <exports>  (138) 
['/opt/xchem-fragalysis-2/maxwin/BulkDock/OUTPUTS/openbind_a71ev2a_c1_knitwork_pure_165VWF8.sdf', '/opt/xchem-fragalysis-2/maxwin/BulkDock/OUTPUTS/openbind_a71ev2a_c1_knitwork_pure_1B07PTU.sdf', '/opt/xchem-fragalysis-2/maxwin/BulkDock/OUTPUTS/openbind_a71ev2a_c1_knitwork_pure_1B07UWE.sdf', '/opt/xchem-fragalysis-2/maxwin/openbind-hippo/a71ev2a/openbind_a71ev2a_c1_scaffold_products.sdf', '/opt/xchem-fragalysis-2/maxwin/openbind-hippo/a71ev2a/cycle_01/bulkdock/openbind_a71ev2a_c1_scaffold_products.sdf', '/opt/xchem-fragalysis-2/maxwin/openbind-hippo/a71ev2a/cycle_01/bulkdock/openbind_a71ev2a_c1_scaffolds.sdf']

>  <fragmenstein_runtime>  (138) 
242.342068

$$$$
C55769-P616
     RDKit          3D

 17 19  0  0  0  0  0  0  0  0999 V2000
    0.3519   12.5751   20.3030 C   0  0  0  0  0  0  0  0  0  0  0  0
    0.8830   12.8355   21.4956 N   0  0  0  0  0  0  0  0  0  0  0  0
    1.0421   14.1736   21.5041 N   0  0  0  0  0  0  0  0  0  0  0  0
    1.5186   14.8661   22.7044 C   0  0  1  0  0  0  0  0  0  0  0  0
    0.4047   15.7345   23.3215 C   0  0  0  0  0  0  0  0  0  0  0  0
    0.7227   16.2233   24.7322 C   0  0  0  0  0  0  0  0  0  0  0  0
    1.2628   15.1007   25.5969 C   0  0  0  0  0  0  0  0  0  0  0  0
    2.4264   14.5576   24.9816 O   0  0  0  0  0  0  0  0  0  0  0  0
    2.1117   13.9033   23.7450 C   0  0  0  0  0  0  0  0  0  0  0  0
    0.5775   14.7561   20.3543 C   0  0  0  0  0  0  0  0  0  0  0  0
    0.0636   13.7426   19.5656 C   0  0  0  0  0  0  0  0  0  0  0  0
   -0.6988   13.7986   18.2705 C   0  0  1  0  0  0  0  0  0  0  0  0
   -0.9293   15.2159   17.7329 C   0  0  0  0  0  0  0  0  0  0  0  0
   -1.3300   15.2371   16.2564 C   0  0  0  0  0  0  0  0  0  0  0  0
   -1.8897   13.9001   15.7883 C   0  0  0  0  0  0  0  0  0  0  0  0
   -0.9251   12.8150   15.9450 N   0  0  0  0  0  0  0  0  0  0  0  0
   -0.1021   12.9106   17.1632 C   0  0  0  0  0  0  0  0  0  0  0  0
  1  2  2  0
  2  3  1  0
  4  3  1  6
  4  5  1  0
  5  6  1  0
  6  7  1  0
  7  8  1  0
  8  9  1  0
  3 10  1  0
 10 11  2  0
 12 11  1  1
 12 13  1  0
 13 14  1  0
 14 15  1  0
 15 16  1  0
 16 17  1  0
 11  1  1  0
 17 12  1  0
  9  4  1  0
M  END
>  <ref_pdb>  (139) 
A5424b

>  <subsites>  (139) 
1 - Active Site

>  <HIPPO Compound ID>  (139) 
67457

>  <energy_score>  (139) 
-30.277529

>  <fragmenstein_mode>  (139) 
expansion

>  <scratch_subdir>  (139) 
/opt/xchem-fragalysis-2/maxwin/BulkDock/SCRATCH/512156/C55769-P616

>  <smiles>  (139) 
c1nn([C@H]2CCCOC2)cc1[C@H]1CCCNC1

>  <alias>  (139) 
C55769-P616

>  <ref_mols>  (139) 
A0473a,A5424b

>  <inspiration_score>  (139) 
None

>  <tags>  (139) 
BulkDock Fragalysis export,fragmenstein_placed,openbind_a71ev2a_c1_scaffolds,openbind_a71ev2a_c1_knitwork_pure

>  <fragmenstein_outcome>  (139) 
acceptable

>  <fragmenstein_error>  (139) 


>  <distance_score>  (139) 
0.820886

>  <inchikey>  (139) 
FUQCTTAKZLEMGE-UHFFFAOYSA-N

>  <name>  (139) 
C55769-P616

>  <HIPPO Pose ID>  (139) 
136144

>  <Energy>  (139) 
44.5299

>  <exports>  (139) 
['/opt/xchem-fragalysis-2/maxwin/BulkDock/OUTPUTS/openbind_a71ev2a_c1_knitwork_pure_165VWF8.sdf', '/opt/xchem-fragalysis-2/maxwin/BulkDock/OUTPUTS/openbind_a71ev2a_c1_knitwork_pure_1B07PTU.sdf', '/opt/xchem-fragalysis-2/maxwin/BulkDock/OUTPUTS/openbind_a71ev2a_c1_knitwork_pure_1B07UWE.sdf', '/opt/xchem-fragalysis-2/maxwin/openbind-hippo/a71ev2a/openbind_a71ev2a_c1_scaffold_products.sdf', '/opt/xchem-fragalysis-2/maxwin/openbind-hippo/a71ev2a/cycle_01/bulkdock/openbind_a71ev2a_c1_scaffold_products.sdf', '/opt/xchem-fragalysis-2/maxwin/openbind-hippo/a71ev2a/cycle_01/bulkdock/openbind_a71ev2a_c1_scaffolds.sdf']

>  <fragmenstein_runtime>  (139) 
4.379644

$$$$
C45903-P109
     RDKit          3D

 21 23  0  0  0  0  0  0  0  0999 V2000
   24.6719   16.3545   23.7970 O   0  0  0  0  0  0  0  0  0  0  0  0
   24.0725   17.6402   23.5852 C   0  0  2  0  0  0  0  0  0  0  0  0
   25.0518   18.4667   22.7449 C   0  0  0  0  0  0  0  0  0  0  0  0
   24.3316   19.3979   21.7751 C   0  0  0  0  0  0  0  0  0  0  0  0
   25.2496   19.9853   20.8212 N   0  0  0  0  0  0  0  0  0  0  0  0
   26.0888   21.0436   21.0897 C   0  0  0  0  0  0  0  0  0  0  0  0
   25.7355   22.0645   21.9318 C   0  0  0  0  0  0  0  0  0  0  0  0
   26.6358   23.0873   22.0361 C   0  0  0  0  0  0  0  0  0  0  0  0
   27.7974   23.1258   21.3697 N   0  0  0  0  0  0  0  0  0  0  0  0
   28.0805   22.1025   20.5438 C   0  0  0  0  0  0  0  0  0  0  0  0
   29.2399   22.1859   19.7532 N   0  0  0  0  0  0  0  0  0  0  0  0
   29.8084   20.8839   19.4197 C   0  0  0  0  0  0  0  0  0  0  0  0
   30.9076   21.0312   18.3685 C   0  0  0  0  0  0  0  0  0  0  0  0
   31.9658   22.0317   18.8166 C   0  0  0  0  0  0  0  0  0  0  0  0
   31.3151   23.3629   19.1740 C   0  0  0  0  0  0  0  0  0  0  0  0
   30.2005   23.1902   20.2084 C   0  0  0  0  0  0  0  0  0  0  0  0
   27.2438   21.0559   20.3988 N   0  0  0  0  0  0  0  0  0  0  0  0
   23.7095   18.1986   24.9650 C   0  0  0  0  0  0  0  0  0  0  0  0
   24.8271   18.6239   25.9501 C   0  0  0  0  0  0  0  0  0  0  0  0
   24.4832   20.0945   25.6484 C   0  0  0  0  0  0  0  0  0  0  0  0
   23.1159   19.6211   25.1265 C   0  0  0  0  0  0  0  0  0  0  0  0
  2  1  1  1
  2  3  1  0
  3  4  1  0
  4  5  1  0
  5  6  1  0
  6  7  2  0
  7  8  1  0
  8  9  2  0
  9 10  1  0
 10 11  1  0
 11 12  1  0
 12 13  1  0
 13 14  1  0
 14 15  1  0
 15 16  1  0
 10 17  2  0
  2 18  1  0
 18 19  1  0
 19 20  1  0
 20 21  1  0
 17  6  1  0
 21 18  1  0
 16 11  1  0
M  END
>  <ref_pdb>  (140) 
A1146a

>  <subsites>  (140) 
1 - Active Site,5 - A3181/A/202/1

>  <HIPPO Compound ID>  (140) 
46417

>  <energy_score>  (140) 
-73.71406

>  <fragmenstein_mode>  (140) 
expansion

>  <scratch_subdir>  (140) 
/opt/xchem-fragalysis-2/maxwin/BulkDock/SCRATCH/512156/C45903-P109

>  <smiles>  (140) 
O[C@H](CCNc1ccnc(N2CCCCC2)n1)C1CCC1

>  <alias>  (140) 
C45903-P109

>  <ref_mols>  (140) 
A4368a,A1146a,A4943a

>  <inspiration_score>  (140) 
None

>  <tags>  (140) 
BulkDock Fragalysis export,fragmenstein_placed,openbind_a71ev2a_c1_scaffolds,openbind_a71ev2a_c1_knitwork_pure

>  <fragmenstein_outcome>  (140) 
acceptable

>  <fragmenstein_error>  (140) 


>  <distance_score>  (140) 
0.756074

>  <inchikey>  (140) 
MXEULFHAOAPIGP-UHFFFAOYSA-N

>  <name>  (140) 
C45903-P109

>  <HIPPO Pose ID>  (140) 
136296

>  <Energy>  (140) 
-91.226169

>  <exports>  (140) 
['/opt/xchem-fragalysis-2/maxwin/BulkDock/OUTPUTS/openbind_a71ev2a_c1_knitwork_pure_165VWF8.sdf', '/opt/xchem-fragalysis-2/maxwin/BulkDock/OUTPUTS/openbind_a71ev2a_c1_knitwork_pure_1B07PTU.sdf', '/opt/xchem-fragalysis-2/maxwin/BulkDock/OUTPUTS/openbind_a71ev2a_c1_knitwork_pure_1B07UWE.sdf', '/opt/xchem-fragalysis-2/maxwin/openbind-hippo/a71ev2a/openbind_a71ev2a_c1_scaffold_products.sdf', '/opt/xchem-fragalysis-2/maxwin/openbind-hippo/a71ev2a/cycle_01/bulkdock/openbind_a71ev2a_c1_scaffold_products.sdf', '/opt/xchem-fragalysis-2/maxwin/openbind-hippo/a71ev2a/cycle_01/bulkdock/openbind_a71ev2a_c1_scaffolds.sdf']

>  <fragmenstein_runtime>  (140) 
79.429338

$$$$
C45903-P535
     RDKit          3D

 21 23  0  0  0  0  0  0  0  0999 V2000
   25.3133   17.2625   26.4001 O   0  0  0  0  0  0  0  0  0  0  0  0
   24.6415   18.0050   25.3716 C   0  0  1  0  0  0  0  0  0  0  0  0
   25.5748   18.0498   24.1611 C   0  0  0  0  0  0  0  0  0  0  0  0
   25.3883   19.2955   23.2959 C   0  0  0  0  0  0  0  0  0  0  0  0
   26.3114   19.2530   22.1698 N   0  0  0  0  0  0  0  0  0  0  0  0
   26.6111   20.4501   21.5222 C   0  0  0  0  0  0  0  0  0  0  0  0
   25.6762   21.4259   21.2988 C   0  0  0  0  0  0  0  0  0  0  0  0
   26.1590   22.5899   20.7680 C   0  0  0  0  0  0  0  0  0  0  0  0
   27.4471   22.7863   20.4429 N   0  0  0  0  0  0  0  0  0  0  0  0
   28.2906   21.7534   20.5959 C   0  0  0  0  0  0  0  0  0  0  0  0
   29.6416   21.9157   20.2292 N   0  0  0  0  0  0  0  0  0  0  0  0
   30.2507   20.6650   19.7722 C   0  0  0  0  0  0  0  0  0  0  0  0
   31.7437   20.8469   19.5060 C   0  0  0  0  0  0  0  0  0  0  0  0
   32.0077   22.0217   18.5739 C   0  0  0  0  0  0  0  0  0  0  0  0
   31.3649   23.2846   19.1336 C   0  0  0  0  0  0  0  0  0  0  0  0
   29.8693   23.0858   19.3803 C   0  0  0  0  0  0  0  0  0  0  0  0
   27.8887   20.5881   21.1276 N   0  0  0  0  0  0  0  0  0  0  0  0
   23.3317   17.2944   25.0478 C   0  0  0  0  0  0  0  0  0  0  0  0
   22.2531   17.3014   26.1700 C   0  0  0  0  0  0  0  0  0  0  0  0
   21.1971   17.3685   25.0509 C   0  0  0  0  0  0  0  0  0  0  0  0
   22.2781   18.0350   24.1766 C   0  0  0  0  0  0  0  0  0  0  0  0
  2  1  1  1
  2  3  1  0
  3  4  1  0
  4  5  1  0
  5  6  1  0
  6  7  2  0
  7  8  1  0
  8  9  2  0
  9 10  1  0
 10 11  1  0
 11 12  1  0
 12 13  1  0
 13 14  1  0
 14 15  1  0
 15 16  1  0
 10 17  2  0
  2 18  1  0
 18 19  1  0
 19 20  1  0
 20 21  1  0
 17  6  1  0
 21 18  1  0
 16 11  1  0
M  END
>  <ref_pdb>  (141) 
A4943a

>  <subsites>  (141) 
1 - Active Site,5 - A3181/A/202/1

>  <HIPPO Compound ID>  (141) 
46917

>  <energy_score>  (141) 
-80.828251

>  <fragmenstein_mode>  (141) 
expansion

>  <scratch_subdir>  (141) 
/opt/xchem-fragalysis-2/maxwin/BulkDock/SCRATCH/512156/C45903-P535

>  <smiles>  (141) 
O[C@@H](CCNc1ccnc(N2CCCCC2)n1)C1CCC1

>  <alias>  (141) 
C45903-P535

>  <ref_mols>  (141) 
A1146a,A4943a

>  <inspiration_score>  (141) 
None

>  <tags>  (141) 
BulkDock Fragalysis export,fragmenstein_placed,openbind_a71ev2a_c1_scaffolds,openbind_a71ev2a_c1_knitwork_pure

>  <fragmenstein_outcome>  (141) 
acceptable

>  <fragmenstein_error>  (141) 


>  <distance_score>  (141) 
0.759757

>  <inchikey>  (141) 
ZLOLAODFQAPVFD-UHFFFAOYSA-N

>  <name>  (141) 
C45903-P535

>  <HIPPO Pose ID>  (141) 
136297

>  <Energy>  (141) 
-98.34036

>  <exports>  (141) 
['/opt/xchem-fragalysis-2/maxwin/BulkDock/OUTPUTS/openbind_a71ev2a_c1_knitwork_pure_165VWF8.sdf', '/opt/xchem-fragalysis-2/maxwin/BulkDock/OUTPUTS/openbind_a71ev2a_c1_knitwork_pure_1B07PTU.sdf', '/opt/xchem-fragalysis-2/maxwin/BulkDock/OUTPUTS/openbind_a71ev2a_c1_knitwork_pure_1B07UWE.sdf', '/opt/xchem-fragalysis-2/maxwin/openbind-hippo/a71ev2a/openbind_a71ev2a_c1_scaffold_products.sdf', '/opt/xchem-fragalysis-2/maxwin/openbind-hippo/a71ev2a/cycle_01/bulkdock/openbind_a71ev2a_c1_scaffold_products.sdf', '/opt/xchem-fragalysis-2/maxwin/openbind-hippo/a71ev2a/cycle_01/bulkdock/openbind_a71ev2a_c1_scaffolds.sdf']

>  <fragmenstein_runtime>  (141) 
78.853108

$$$$
C66335-P153
     RDKit          3D

 20 22  0  0  0  0  0  0  0  0999 V2000
    6.6622   14.2840   22.9624 C   0  0  0  0  0  0  0  0  0  0  0  0
    7.6750   15.0061   23.6495 O   0  0  0  0  0  0  0  0  0  0  0  0
    8.9330   14.2358   23.6409 N   0  0  0  0  0  0  0  0  0  0  0  0
    9.1071   13.4622   24.9145 C   0  0  0  0  0  0  0  0  0  0  0  0
    9.6272   13.7665   25.9262 O   0  0  0  0  0  0  0  0  0  0  0  0
    8.5430   12.0930   24.8515 C   0  0  0  0  0  0  0  0  0  0  0  0
    9.0633   11.1244   24.0064 C   0  0  0  0  0  0  0  0  0  0  0  0
    8.6435    9.8221   24.2202 C   0  0  0  0  0  0  0  0  0  0  0  0
    7.7469    9.4552   25.1773 N   0  0  0  0  0  0  0  0  0  0  0  0
    7.2240   10.4117   25.9812 C   0  0  0  0  0  0  0  0  0  0  0  0
    6.2923   10.0206   27.1089 C   0  0  0  0  0  0  0  0  0  0  0  0
    4.9712   10.7301   27.2504 C   0  0  0  0  0  0  0  0  0  0  0  0
    5.0168    9.2727   26.8853 C   0  0  0  0  0  0  0  0  0  0  0  0
    7.6165   11.7386   25.8340 C   0  0  0  0  0  0  0  0  0  0  0  0
    9.4537   15.5879   23.2351 C   0  0  0  0  0  0  0  0  0  0  0  0
   10.9377   15.6790   23.6443 C   0  0  0  0  0  0  0  0  0  0  0  0
   11.8561   14.8958   22.7297 C   0  0  0  0  0  0  0  0  0  0  0  0
   11.7117   15.3627   21.3609 N   0  0  0  0  0  0  0  0  0  0  0  0
   10.3523   15.1398   20.8784 C   0  0  0  0  0  0  0  0  0  0  0  0
    9.3387   15.9013   21.7254 C   0  0  0  0  0  0  0  0  0  0  0  0
  1  2  1  0
  2  3  1  0
  3  4  1  0
  4  5  2  0
  4  6  1  0
  6  7  2  0
  7  8  1  0
  8  9  2  0
  9 10  1  0
 10 11  1  0
 11 12  1  0
 12 13  1  0
 10 14  2  0
  3 15  1  0
 15 16  1  0
 16 17  1  0
 17 18  1  0
 18 19  1  0
 19 20  1  0
 14  6  1  0
 20 15  1  0
 13 11  1  0
M  END
>  <ref_pdb>  (142) 
A3207a

>  <subsites>  (142) 
1 - Active Site

>  <HIPPO Compound ID>  (142) 
46631

>  <energy_score>  (142) 
-4.863834

>  <fragmenstein_mode>  (142) 
expansion

>  <scratch_subdir>  (142) 
/opt/xchem-fragalysis-2/maxwin/BulkDock/SCRATCH/512156/C66335-P153

>  <smiles>  (142) 
CON(C(=O)c1ccnc(C2CC2)c1)C1CCNCC1

>  <alias>  (142) 
C66335-P153

>  <ref_mols>  (142) 
A3207a,A0875a

>  <inspiration_score>  (142) 
None

>  <tags>  (142) 
BulkDock Fragalysis export,fragmenstein_placed,openbind_a71ev2a_c1_scaffolds,openbind_a71ev2a_c1_knitwork_pure

>  <fragmenstein_outcome>  (142) 
acceptable

>  <fragmenstein_error>  (142) 


>  <distance_score>  (142) 
0.82253

>  <inchikey>  (142) 
ZSCBHMTXZYVXEQ-UHFFFAOYSA-N

>  <name>  (142) 
C66335-P153

>  <HIPPO Pose ID>  (142) 
137421

>  <Energy>  (142) 
88.901671

>  <exports>  (142) 
['/opt/xchem-fragalysis-2/maxwin/BulkDock/OUTPUTS/openbind_a71ev2a_c1_knitwork_pure_165VWF8.sdf', '/opt/xchem-fragalysis-2/maxwin/BulkDock/OUTPUTS/openbind_a71ev2a_c1_knitwork_pure_1B07PTU.sdf', '/opt/xchem-fragalysis-2/maxwin/BulkDock/OUTPUTS/openbind_a71ev2a_c1_knitwork_pure_1B07UWE.sdf', '/opt/xchem-fragalysis-2/maxwin/openbind-hippo/a71ev2a/openbind_a71ev2a_c1_scaffold_products.sdf', '/opt/xchem-fragalysis-2/maxwin/openbind-hippo/a71ev2a/cycle_01/bulkdock/openbind_a71ev2a_c1_scaffold_products.sdf', '/opt/xchem-fragalysis-2/maxwin/openbind-hippo/a71ev2a/cycle_01/bulkdock/openbind_a71ev2a_c1_scaffolds.sdf']

>  <fragmenstein_runtime>  (142) 
2.494232

$$$$
C57914-P234
     RDKit          3D

 22 23  0  0  0  0  0  0  0  0999 V2000
    3.7728   12.7320   17.5814 C   0  0  0  0  0  0  0  0  0  0  0  0
    2.6909   12.5428   18.6424 C   0  0  0  0  0  0  0  0  0  0  0  0
    1.3036   12.6375   17.9848 C   0  0  0  0  0  0  0  0  0  0  0  0
    2.8198   11.1803   19.3406 C   0  0  0  0  0  0  0  0  0  0  0  0
    2.8525   13.6473   19.6259 C   0  0  0  0  0  0  0  0  0  0  0  0
    2.3545   14.9236   19.6989 C   0  0  0  0  0  0  0  0  0  0  0  0
    2.9051   15.5720   20.7658 N   0  0  0  0  0  0  0  0  0  0  0  0
    3.6529   14.6548   21.3456 C   0  0  0  0  0  0  0  0  0  0  0  0
    4.3100   14.7549   22.6646 C   0  0  0  0  0  0  0  0  0  0  0  0
    5.6129   15.5298   22.6574 C   0  0  0  0  0  0  0  0  0  0  0  0
    6.8354   14.6132   22.6380 C   0  0  0  0  0  0  0  0  0  0  0  0
    6.8773   13.5776   22.0938 O   0  0  0  0  0  0  0  0  0  0  0  0
    7.8970   15.3312   23.5258 N   0  0  0  0  0  0  0  0  0  0  0  0
    9.2550   14.9637   23.8435 C   0  0  0  0  0  0  0  0  0  0  0  0
    9.6355   13.5072   23.6132 C   0  0  0  0  0  0  0  0  0  0  0  0
    8.9260   12.4669   24.3308 N   0  0  0  0  0  0  0  0  0  0  0  0
    8.9895   11.1376   23.7996 C   0  0  0  0  0  0  0  0  0  0  0  0
    8.1775   10.3186   24.7514 C   0  0  0  0  0  0  0  0  0  0  0  0
    7.2379   11.2819   25.4334 C   0  0  0  0  0  0  0  0  0  0  0  0
    7.8999   12.6172   25.2509 C   0  0  0  0  0  0  0  0  0  0  0  0
    7.5543   13.6234   25.8495 O   0  0  0  0  0  0  0  0  0  0  0  0
    3.7037   13.4649   20.6817 O   0  0  0  0  0  0  0  0  0  0  0  0
  1  2  1  0
  2  3  1  0
  2  4  1  0
  2  5  1  0
  5  6  2  0
  6  7  1  0
  7  8  2  0
  8  9  1  0
  9 10  1  0
 10 11  1  0
 11 12  2  0
 11 13  1  0
 13 14  1  0
 14 15  1  0
 15 16  1  0
 16 17  1  0
 17 18  1  0
 18 19  1  0
 19 20  1  0
 20 21  2  0
  8 22  1  0
 22  5  1  0
 20 16  1  0
M  END
>  <ref_pdb>  (143) 
A3895a

>  <subsites>  (143) 
1 - Active Site

>  <HIPPO Compound ID>  (143) 
50844

>  <energy_score>  (143) 
-27.688787

>  <fragmenstein_mode>  (143) 
expansion

>  <scratch_subdir>  (143) 
/opt/xchem-fragalysis-2/maxwin/BulkDock/SCRATCH/512157/C57914-P234

>  <smiles>  (143) 
CC(C)(C)c1cnc(CCC(=O)NCCN2CCCC2=O)o1

>  <alias>  (143) 
C57914-P234

>  <ref_mols>  (143) 
A3623a,A3895a

>  <inspiration_score>  (143) 
None

>  <tags>  (143) 
BulkDock Fragalysis export,fragmenstein_placed,openbind_a71ev2a_c1_scaffolds,openbind_a71ev2a_c1_knitwork_pure

>  <fragmenstein_outcome>  (143) 
acceptable

>  <fragmenstein_error>  (143) 


>  <distance_score>  (143) 
0.970691

>  <inchikey>  (143) 
KBLKPVYLXZHJGK-UHFFFAOYSA-N

>  <name>  (143) 
C57914-P234

>  <HIPPO Pose ID>  (143) 
138207

>  <Energy>  (143) 
4.177648

>  <exports>  (143) 
['/opt/xchem-fragalysis-2/maxwin/BulkDock/OUTPUTS/openbind_a71ev2a_c1_knitwork_pure_165VWF8.sdf', '/opt/xchem-fragalysis-2/maxwin/BulkDock/OUTPUTS/openbind_a71ev2a_c1_knitwork_pure_1B07PTU.sdf', '/opt/xchem-fragalysis-2/maxwin/BulkDock/OUTPUTS/openbind_a71ev2a_c1_knitwork_pure_1B07UWE.sdf', '/opt/xchem-fragalysis-2/maxwin/openbind-hippo/a71ev2a/openbind_a71ev2a_c1_scaffold_products.sdf', '/opt/xchem-fragalysis-2/maxwin/openbind-hippo/a71ev2a/cycle_01/bulkdock/openbind_a71ev2a_c1_scaffold_products.sdf', '/opt/xchem-fragalysis-2/maxwin/openbind-hippo/a71ev2a/cycle_01/bulkdock/openbind_a71ev2a_c1_scaffolds.sdf']

>  <fragmenstein_runtime>  (143) 
4.84257

$$$$
C57919-P234
     RDKit          3D

 22 23  0  0  0  0  0  0  0  0999 V2000
    2.7912   11.1731   19.3406 C   0  0  0  0  0  0  0  0  0  0  0  0
    2.7178   12.5302   18.6214 C   0  0  0  0  0  0  0  0  0  0  0  0
    1.4018   12.6148   17.8357 C   0  0  0  0  0  0  0  0  0  0  0  0
    3.8975   12.7105   17.6681 C   0  0  0  0  0  0  0  0  0  0  0  0
    2.7799   13.6410   19.6084 C   0  0  0  0  0  0  0  0  0  0  0  0
    2.3072   14.9282   19.6233 C   0  0  0  0  0  0  0  0  0  0  0  0
    2.7498   15.5705   20.7437 N   0  0  0  0  0  0  0  0  0  0  0  0
    3.3835   14.6313   21.4195 C   0  0  0  0  0  0  0  0  0  0  0  0
    3.8469   14.6843   22.8232 C   0  0  0  0  0  0  0  0  0  0  0  0
    5.2247   15.0618   22.9432 N   0  0  0  0  0  0  0  0  0  0  0  0
    6.5090   14.2988   22.5507 C   0  0  0  0  0  0  0  0  0  0  0  0
    6.6383   13.3043   22.0125 O   0  0  0  0  0  0  0  0  0  0  0  0
    7.5627   15.2324   23.1937 N   0  0  0  0  0  0  0  0  0  0  0  0
    8.9802   15.0555   23.3718 C   0  0  0  0  0  0  0  0  0  0  0  0
    9.5520   13.6652   23.0942 C   0  0  0  0  0  0  0  0  0  0  0  0
    8.9987   12.5065   23.7730 N   0  0  0  0  0  0  0  0  0  0  0  0
    9.5460   11.2175   23.4724 C   0  0  0  0  0  0  0  0  0  0  0  0
    8.6695   10.2262   24.1781 C   0  0  0  0  0  0  0  0  0  0  0  0
    7.7680   11.0283   25.0926 C   0  0  0  0  0  0  0  0  0  0  0  0
    8.1062   12.4683   24.8264 C   0  0  0  0  0  0  0  0  0  0  0  0
    7.6626   13.3949   25.4868 O   0  0  0  0  0  0  0  0  0  0  0  0
    3.4815   13.4389   20.7626 O   0  0  0  0  0  0  0  0  0  0  0  0
  1  2  1  0
  2  3  1  0
  2  4  1  0
  2  5  1  0
  5  6  2  0
  6  7  1  0
  7  8  2  0
  8  9  1  0
  9 10  1  0
 10 11  1  0
 11 12  2  0
 11 13  1  0
 13 14  1  0
 14 15  1  0
 15 16  1  0
 16 17  1  0
 17 18  1  0
 18 19  1  0
 19 20  1  0
 20 21  2  0
  8 22  1  0
 22  5  1  0
 20 16  1  0
M  END
>  <ref_pdb>  (144) 
A3895a

>  <subsites>  (144) 
1 - Active Site

>  <HIPPO Compound ID>  (144) 
68883

>  <energy_score>  (144) 
-8.616547

>  <fragmenstein_mode>  (144) 
expansion

>  <scratch_subdir>  (144) 
/opt/xchem-fragalysis-2/maxwin/BulkDock/SCRATCH/512157/C57919-P234

>  <smiles>  (144) 
CC(C)(C)c1cnc(CNC(=O)NCCN2CCCC2=O)o1

>  <alias>  (144) 
C57919-P234

>  <ref_mols>  (144) 
A3623a,A3895a

>  <inspiration_score>  (144) 
None

>  <tags>  (144) 
BulkDock Fragalysis export,fragmenstein_placed,openbind_a71ev2a_c1_scaffolds,openbind_a71ev2a_c1_knitwork_pure

>  <fragmenstein_outcome>  (144) 
acceptable

>  <fragmenstein_error>  (144) 


>  <distance_score>  (144) 
0.979137

>  <inchikey>  (144) 
DVJLCXBUKZNXHF-UHFFFAOYSA-N

>  <name>  (144) 
C57919-P234

>  <HIPPO Pose ID>  (144) 
138208

>  <Energy>  (144) 
-24.900787

>  <exports>  (144) 
['/opt/xchem-fragalysis-2/maxwin/BulkDock/OUTPUTS/openbind_a71ev2a_c1_knitwork_pure_165VWF8.sdf', '/opt/xchem-fragalysis-2/maxwin/BulkDock/OUTPUTS/openbind_a71ev2a_c1_knitwork_pure_1B07PTU.sdf', '/opt/xchem-fragalysis-2/maxwin/BulkDock/OUTPUTS/openbind_a71ev2a_c1_knitwork_pure_1B07UWE.sdf', '/opt/xchem-fragalysis-2/maxwin/openbind-hippo/a71ev2a/openbind_a71ev2a_c1_scaffold_products.sdf', '/opt/xchem-fragalysis-2/maxwin/openbind-hippo/a71ev2a/cycle_01/bulkdock/openbind_a71ev2a_c1_scaffold_products.sdf', '/opt/xchem-fragalysis-2/maxwin/openbind-hippo/a71ev2a/cycle_01/bulkdock/openbind_a71ev2a_c1_scaffolds.sdf']

>  <fragmenstein_runtime>  (144) 
6.040773

$$$$
C45662-P439
     RDKit          3D

 22 24  0  0  0  0  0  0  0  0999 V2000
    4.6190   15.1279    3.8385 O   0  0  0  0  0  0  0  0  0  0  0  0
    4.5905   13.9592    3.8168 C   0  0  0  0  0  0  0  0  0  0  0  0
    5.6939   12.9166    4.1676 N   0  0  0  0  0  0  0  0  0  0  0  0
    7.1860   13.1243    4.7726 S   0  0  0  0  0  0  0  0  0  0  0  0
    7.6549   11.8009    5.1102 O   0  0  0  0  0  0  0  0  0  0  0  0
    7.1364   14.1297    5.8178 O   0  0  0  0  0  0  0  0  0  0  0  0
    8.1832   13.7365    3.4327 C   0  0  2  0  0  0  0  0  0  0  0  0
    7.7210   15.0649    2.8603 C   0  0  0  0  0  0  0  0  0  0  0  0
    8.7593   15.6026    1.8745 C   0  0  0  0  0  0  0  0  0  0  0  0
    9.6490   14.5041    1.2748 C   0  0  0  0  0  0  0  0  0  0  0  0
    8.9180   13.2588    1.0803 N   0  0  0  0  0  0  0  0  0  0  0  0
    8.3702   12.6979    2.3270 C   0  0  0  0  0  0  0  0  0  0  0  0
    3.3380   13.2801    3.4860 C   0  0  0  0  0  0  0  0  0  0  0  0
    2.1908   13.8748    2.9084 C   0  0  0  0  0  0  0  0  0  0  0  0
    1.1709   13.0251    2.7755 N   0  0  0  0  0  0  0  0  0  0  0  0
    1.6390   11.8742    3.2930 N   0  0  0  0  0  0  0  0  0  0  0  0
    0.7988   10.6912    3.4191 C   0  0  0  0  0  0  0  0  0  0  0  0
   -0.1239   10.4397    2.2246 C   0  0  0  0  0  0  0  0  0  0  0  0
   -1.4490   11.1251    2.5625 C   0  0  0  0  0  0  0  0  0  0  0  0
   -1.3961   11.4804    4.0468 C   0  0  0  0  0  0  0  0  0  0  0  0
   -0.1655   10.7741    4.6011 C   0  0  0  0  0  0  0  0  0  0  0  0
    2.9419   11.9738    3.7069 C   0  0  0  0  0  0  0  0  0  0  0  0
  1  2  2  0
  2  3  1  0
  3  4  1  0
  4  5  2  0
  4  6  2  0
  7  4  1  1
  7  8  1  0
  8  9  1  0
  9 10  1  0
 10 11  1  0
 11 12  1  0
  2 13  1  0
 13 14  1  0
 14 15  2  0
 15 16  1  0
 16 17  1  0
 17 18  1  0
 18 19  1  0
 19 20  1  0
 20 21  1  0
 16 22  1  0
 12  7  1  0
 22 13  2  0
 21 17  1  0
M  END
>  <ref_pdb>  (145) 
A4706a

>  <subsites>  (145) 
1 - Active Site,3 - A0541/A/147/1

>  <HIPPO Compound ID>  (145) 
124499

>  <energy_score>  (145) 
-36.493071

>  <fragmenstein_mode>  (145) 
expansion

>  <scratch_subdir>  (145) 
/opt/xchem-fragalysis-2/maxwin/BulkDock/SCRATCH/512157/C45662-P439

>  <smiles>  (145) 
O=C(NS(=O)(=O)[C@@H]1CCCNC1)c1cnn(C2CCCC2)c1

>  <alias>  (145) 
C45662-P439

>  <ref_mols>  (145) 
A0717a,A4706a

>  <inspiration_score>  (145) 
None

>  <tags>  (145) 
BulkDock Fragalysis export,fragmenstein_placed,openbind_a71ev2a_c1_scaffolds,openbind_a71ev2a_c1_knitwork_pure

>  <fragmenstein_outcome>  (145) 
acceptable

>  <fragmenstein_error>  (145) 


>  <distance_score>  (145) 
0.880864

>  <inchikey>  (145) 
YAGIQJGUZXILLT-UHFFFAOYSA-N

>  <name>  (145) 
C45662-P439

>  <HIPPO Pose ID>  (145) 
138624

>  <Energy>  (145) 
-87.353001

>  <exports>  (145) 
['/opt/xchem-fragalysis-2/maxwin/BulkDock/OUTPUTS/openbind_a71ev2a_c1_knitwork_pure_165VWF8.sdf', '/opt/xchem-fragalysis-2/maxwin/BulkDock/OUTPUTS/openbind_a71ev2a_c1_knitwork_pure_1B07PTU.sdf', '/opt/xchem-fragalysis-2/maxwin/BulkDock/OUTPUTS/openbind_a71ev2a_c1_knitwork_pure_1B07UWE.sdf', '/opt/xchem-fragalysis-2/maxwin/openbind-hippo/a71ev2a/openbind_a71ev2a_c1_scaffold_products.sdf', '/opt/xchem-fragalysis-2/maxwin/openbind-hippo/a71ev2a/cycle_01/bulkdock/openbind_a71ev2a_c1_scaffold_products.sdf', '/opt/xchem-fragalysis-2/maxwin/openbind-hippo/a71ev2a/cycle_01/bulkdock/openbind_a71ev2a_c1_scaffolds.sdf']

>  <fragmenstein_runtime>  (145) 
112.562138

$$$$
C54524-P305
     RDKit          3D

 14 15  0  0  0  0  0  0  0  0999 V2000
    9.6771   17.5048   21.1108 C   0  0  0  0  0  0  0  0  0  0  0  0
    8.7006   16.7757   22.0268 C   0  0  0  0  0  0  0  0  0  0  0  0
    8.7398   15.2582   21.8588 C   0  0  2  0  0  0  0  0  0  0  0  0
    8.2216   14.5225   23.1013 C   0  0  0  0  0  0  0  0  0  0  0  0
    9.3689   13.6002   23.4769 C   0  0  2  0  0  0  0  0  0  0  0  0
    9.5589   13.3461   24.9008 N   0  0  0  0  0  0  0  0  0  0  0  0
    8.5926   12.4729   25.5682 C   0  0  2  0  0  0  0  0  0  0  0  0
    8.0997   11.2645   24.7782 C   0  0  0  0  0  0  0  0  0  0  0  0
    7.2572   10.3910   25.6943 C   0  0  0  0  0  0  0  0  0  0  0  0
    6.1242   11.1559   26.3702 C   0  0  0  0  0  0  0  0  0  0  0  0
    6.5964   12.3484   27.0685 N   0  0  0  0  0  0  0  0  0  0  0  0
    7.3836   13.2205   26.1771 C   0  0  0  0  0  0  0  0  0  0  0  0
   10.5687   14.3383   22.8971 C   0  0  0  0  0  0  0  0  0  0  0  0
   10.0974   14.8514   21.6611 O   0  0  0  0  0  0  0  0  0  0  0  0
  1  2  1  0
  3  2  1  1
  3  4  1  0
  4  5  1  0
  5  6  1  1
  7  6  1  6
  7  8  1  0
  8  9  1  0
  9 10  1  0
 10 11  1  0
 11 12  1  0
  5 13  1  0
 13 14  1  0
 14  3  1  0
 12  7  1  0
M  END
>  <ref_pdb>  (146) 
A4321b

>  <subsites>  (146) 
1 - Active Site,6 - A0486/A/147/1

>  <HIPPO Compound ID>  (146) 
47965

>  <energy_score>  (146) 
-32.51772

>  <fragmenstein_mode>  (146) 
expansion

>  <scratch_subdir>  (146) 
/opt/xchem-fragalysis-2/maxwin/BulkDock/SCRATCH/512157/C54524-P305

>  <smiles>  (146) 
CC[C@@H]1C[C@H](N[C@@H]2CCCNC2)CO1

>  <alias>  (146) 
C54524-P305

>  <ref_mols>  (146) 
A4321b,A0608a

>  <inspiration_score>  (146) 
None

>  <tags>  (146) 
BulkDock Fragalysis export,fragmenstein_placed,openbind_a71ev2a_c1_scaffolds,openbind_a71ev2a_c1_knitwork_pure

>  <fragmenstein_outcome>  (146) 
acceptable

>  <fragmenstein_error>  (146) 


>  <distance_score>  (146) 
0.896318

>  <inchikey>  (146) 
JCRRANDBLAFJJV-UHFFFAOYSA-N

>  <name>  (146) 
C54524-P305

>  <HIPPO Pose ID>  (146) 
139314

>  <Energy>  (146) 
54.459204

>  <exports>  (146) 
['/opt/xchem-fragalysis-2/maxwin/BulkDock/OUTPUTS/openbind_a71ev2a_c1_knitwork_pure_165VWF8.sdf', '/opt/xchem-fragalysis-2/maxwin/BulkDock/OUTPUTS/openbind_a71ev2a_c1_knitwork_pure_1B07PTU.sdf', '/opt/xchem-fragalysis-2/maxwin/BulkDock/OUTPUTS/openbind_a71ev2a_c1_knitwork_pure_1B07UWE.sdf', '/opt/xchem-fragalysis-2/maxwin/openbind-hippo/a71ev2a/openbind_a71ev2a_c1_scaffold_products.sdf', '/opt/xchem-fragalysis-2/maxwin/openbind-hippo/a71ev2a/cycle_01/bulkdock/openbind_a71ev2a_c1_scaffold_products.sdf', '/opt/xchem-fragalysis-2/maxwin/openbind-hippo/a71ev2a/cycle_01/bulkdock/openbind_a71ev2a_c1_scaffolds.sdf']

>  <fragmenstein_runtime>  (146) 
4.062125

$$$$
C45982-P197
     RDKit          3D

 23 26  0  0  0  0  0  0  0  0999 V2000
    8.4837   15.0632   26.3945 O   0  0  0  0  0  0  0  0  0  0  0  0
    8.9795   14.2805   25.2788 S   0  0  0  0  0  0  0  0  0  0  0  0
   10.3103   13.7161   25.3537 O   0  0  0  0  0  0  0  0  0  0  0  0
    8.8377   15.2859   23.8196 C   0  0  1  0  0  0  0  0  0  0  0  0
    9.7589   16.4794   23.8922 C   0  0  0  0  0  0  0  0  0  0  0  0
   11.2396   16.1491   23.7076 C   0  0  0  0  0  0  0  0  0  0  0  0
   11.5188   14.9249   22.8432 C   0  0  0  0  0  0  0  0  0  0  0  0
   10.4029   14.7233   21.9449 N   0  0  0  0  0  0  0  0  0  0  0  0
   10.5829   15.0543   20.6483 C   0  0  0  0  0  0  0  0  0  0  0  0
   11.7038   15.2585   19.9933 N   0  0  0  0  0  0  0  0  0  0  0  0
   11.2980   15.5562   18.7236 C   0  0  0  0  0  0  0  0  0  0  0  0
    9.9347   15.5639   18.6652 C   0  0  0  0  0  0  0  0  0  0  0  0
    9.4638   15.2285   19.8917 O   0  0  0  0  0  0  0  0  0  0  0  0
    9.0529   14.5679   22.5000 C   0  0  0  0  0  0  0  0  0  0  0  0
    7.8692   13.0733   24.9822 N   0  0  0  0  0  0  0  0  0  0  0  0
    6.5569   13.0507   25.6871 C   0  0  0  0  0  0  0  0  0  0  0  0
    6.3382   11.5822   26.0982 C   0  0  0  0  0  0  0  0  0  0  0  0
    7.3396   10.8630   25.2539 C   0  0  0  0  0  0  0  0  0  0  0  0
    7.4519    9.5078   25.0371 C   0  0  0  0  0  0  0  0  0  0  0  0
    8.4914    9.0549   24.2239 C   0  0  0  0  0  0  0  0  0  0  0  0
    9.4142    9.9374   23.6633 C   0  0  0  0  0  0  0  0  0  0  0  0
    9.3083   11.2994   23.9111 C   0  0  0  0  0  0  0  0  0  0  0  0
    8.2633   11.7419   24.7033 C   0  0  0  0  0  0  0  0  0  0  0  0
  1  2  2  0
  2  3  2  0
  4  2  1  1
  4  5  1  0
  5  6  1  0
  6  7  1  0
  7  8  1  0
  8  9  1  0
  9 10  2  0
 10 11  1  0
 11 12  2  0
 12 13  1  0
  8 14  1  0
  2 15  1  0
 15 16  1  0
 16 17  1  0
 17 18  1  0
 18 19  2  0
 19 20  1  0
 20 21  2  0
 21 22  1  0
 22 23  2  0
 14  4  1  0
 23 15  1  0
 13  9  1  0
 23 18  1  0
M  END
>  <ref_pdb>  (147) 
A3616b

>  <subsites>  (147) 
1 - Active Site

>  <HIPPO Compound ID>  (147) 
96564

>  <energy_score>  (147) 
-48.867902

>  <fragmenstein_mode>  (147) 
expansion

>  <scratch_subdir>  (147) 
/opt/xchem-fragalysis-2/maxwin/BulkDock/SCRATCH/512157/C45982-P197

>  <smiles>  (147) 
O=S(=O)([C@H]1CCCN(c2ncco2)C1)N1CCc2ccccc21

>  <alias>  (147) 
C45982-P197

>  <ref_mols>  (147) 
A3623a,A3616b

>  <inspiration_score>  (147) 
None

>  <tags>  (147) 
BulkDock Fragalysis export,fragmenstein_placed,openbind_a71ev2a_c1_scaffolds,openbind_a71ev2a_c1_knitwork_pure

>  <fragmenstein_outcome>  (147) 
acceptable

>  <fragmenstein_error>  (147) 


>  <distance_score>  (147) 
0.948468

>  <inchikey>  (147) 
DANVHOXOMCKSFM-UHFFFAOYSA-N

>  <name>  (147) 
C45982-P197

>  <HIPPO Pose ID>  (147) 
140667

>  <Energy>  (147) 
-36.666362

>  <exports>  (147) 
['/opt/xchem-fragalysis-2/maxwin/BulkDock/OUTPUTS/openbind_a71ev2a_c1_knitwork_pure_165VWF8.sdf', '/opt/xchem-fragalysis-2/maxwin/BulkDock/OUTPUTS/openbind_a71ev2a_c1_knitwork_pure_1B07PTU.sdf', '/opt/xchem-fragalysis-2/maxwin/BulkDock/OUTPUTS/openbind_a71ev2a_c1_knitwork_pure_1B07UWE.sdf', '/opt/xchem-fragalysis-2/maxwin/openbind-hippo/a71ev2a/openbind_a71ev2a_c1_scaffold_products.sdf', '/opt/xchem-fragalysis-2/maxwin/openbind-hippo/a71ev2a/cycle_01/bulkdock/openbind_a71ev2a_c1_scaffold_products.sdf', '/opt/xchem-fragalysis-2/maxwin/openbind-hippo/a71ev2a/cycle_01/bulkdock/openbind_a71ev2a_c1_scaffolds.sdf']

>  <fragmenstein_runtime>  (147) 
93.338578

$$$$
C65274-P174
     RDKit          3D

 22 23  0  0  0  0  0  0  0  0999 V2000
    4.2451   11.8226   28.0502 O   0  0  0  0  0  0  0  0  0  0  0  0
    4.6228   12.5049   27.1844 C   0  0  0  0  0  0  0  0  0  0  0  0
    4.1298   13.8896   26.7148 N   0  0  0  0  0  0  0  0  0  0  0  0
    3.1304   14.7663   27.2725 C   0  0  0  0  0  0  0  0  0  0  0  0
    1.7094   14.3392   26.9333 C   0  0  0  0  0  0  0  0  0  0  0  0
    1.2913   14.5826   25.5648 N   0  0  0  0  0  0  0  0  0  0  0  0
    1.7314   13.9339   24.4457 C   0  0  0  0  0  0  0  0  0  0  0  0
    0.8465   14.2731   23.4510 C   0  0  0  0  0  0  0  0  0  0  0  0
   -0.0816   15.1630   23.9201 N   0  0  0  0  0  0  0  0  0  0  0  0
    0.2218   15.3509   25.1855 C   0  0  0  0  0  0  0  0  0  0  0  0
    5.7906   12.0366   26.3778 C   0  0  0  0  0  0  0  0  0  0  0  0
    5.9656   10.6707   26.1412 C   0  0  0  0  0  0  0  0  0  0  0  0
    7.0043   10.2821   25.3132 C   0  0  0  0  0  0  0  0  0  0  0  0
    7.8695   11.1485   24.7469 N   0  0  0  0  0  0  0  0  0  0  0  0
    7.6980   12.4477   25.0441 C   0  0  0  0  0  0  0  0  0  0  0  0
    8.6170   13.3464   24.5687 O   0  0  0  0  0  0  0  0  0  0  0  0
    8.6429   13.3152   23.1362 C   0  0  0  0  0  0  0  0  0  0  0  0
    9.6876   14.2843   22.6104 C   0  0  0  0  0  0  0  0  0  0  0  0
    9.8024   15.3735   23.4029 F   0  0  0  0  0  0  0  0  0  0  0  0
    9.3471   14.7201   21.3737 F   0  0  0  0  0  0  0  0  0  0  0  0
   10.9027   13.7052   22.5287 F   0  0  0  0  0  0  0  0  0  0  0  0
    6.7180   12.9397   25.8742 C   0  0  0  0  0  0  0  0  0  0  0  0
  1  2  2  0
  2  3  1  0
  3  4  1  0
  4  5  1  0
  5  6  1  0
  6  7  1  0
  7  8  2  0
  8  9  1  0
  9 10  2  0
  2 11  1  0
 11 12  2  0
 12 13  1  0
 13 14  2  0
 14 15  1  0
 15 16  1  0
 16 17  1  0
 17 18  1  0
 18 19  1  0
 18 20  1  0
 18 21  1  0
 15 22  2  0
 10  6  1  0
 22 11  1  0
M  END
>  <ref_pdb>  (148) 
A3371a

>  <subsites>  (148) 
1 - Active Site

>  <HIPPO Compound ID>  (148) 
50577

>  <energy_score>  (148) 
-10.142604

>  <fragmenstein_mode>  (148) 
expansion

>  <scratch_subdir>  (148) 
/opt/xchem-fragalysis-2/maxwin/BulkDock/SCRATCH/512157/C65274-P174

>  <smiles>  (148) 
O=C(NCCn1ccnc1)c1ccnc(OCC(F)(F)F)c1

>  <alias>  (148) 
C65274-P174

>  <ref_mols>  (148) 
A3371a,A3618a

>  <inspiration_score>  (148) 
None

>  <tags>  (148) 
BulkDock Fragalysis export,fragmenstein_placed,openbind_a71ev2a_c1_scaffolds,openbind_a71ev2a_c1_knitwork_pure

>  <fragmenstein_outcome>  (148) 
acceptable

>  <fragmenstein_error>  (148) 


>  <distance_score>  (148) 
0.937178

>  <inchikey>  (148) 
WQPLYSTUHBUNOX-UHFFFAOYSA-N

>  <name>  (148) 
C65274-P174

>  <HIPPO Pose ID>  (148) 
141714

>  <Energy>  (148) 
29.560486

>  <exports>  (148) 
['/opt/xchem-fragalysis-2/maxwin/BulkDock/OUTPUTS/openbind_a71ev2a_c1_knitwork_pure_165VWF8.sdf', '/opt/xchem-fragalysis-2/maxwin/BulkDock/OUTPUTS/openbind_a71ev2a_c1_knitwork_pure_1B07PTU.sdf', '/opt/xchem-fragalysis-2/maxwin/BulkDock/OUTPUTS/openbind_a71ev2a_c1_knitwork_pure_1B07UWE.sdf', '/opt/xchem-fragalysis-2/maxwin/openbind-hippo/a71ev2a/openbind_a71ev2a_c1_scaffold_products.sdf', '/opt/xchem-fragalysis-2/maxwin/openbind-hippo/a71ev2a/cycle_01/bulkdock/openbind_a71ev2a_c1_scaffold_products.sdf', '/opt/xchem-fragalysis-2/maxwin/openbind-hippo/a71ev2a/cycle_01/bulkdock/openbind_a71ev2a_c1_scaffolds.sdf']

>  <fragmenstein_runtime>  (148) 
4.347116

$$$$
C15317-P103
     RDKit          3D

 23 26  0  0  0  0  0  0  0  0999 V2000
   21.4420   -1.3418   20.3964 C   0  0  0  0  0  0  0  0  0  0  0  0
   20.6594   -2.5209   21.0051 C   0  0  2  0  0  0  0  0  0  0  0  0
   21.6055   -3.2745   21.9356 C   0  0  0  0  0  0  0  0  0  0  0  0
   21.4276   -3.2211   23.3223 C   0  0  0  0  0  0  0  0  0  0  0  0
   22.3095   -3.9178   24.1343 C   0  0  0  0  0  0  0  0  0  0  0  0
   23.3418   -4.6527   23.6697 N   0  0  0  0  0  0  0  0  0  0  0  0
   23.4973   -4.6947   22.3290 C   0  0  0  0  0  0  0  0  0  0  0  0
   22.6709   -4.0330   21.4352 C   0  0  0  0  0  0  0  0  0  0  0  0
   20.0541   -3.4184   19.9867 N   0  0  0  0  0  0  0  0  0  0  0  0
   19.2080   -4.4595   20.6355 C   0  0  0  0  0  0  0  0  0  0  0  0
   18.4594   -5.3596   19.6253 C   0  0  0  0  0  0  0  0  0  0  0  0
   17.6155   -4.5079   18.7861 N   0  0  0  0  0  0  0  0  0  0  0  0
   16.5029   -5.0336   18.1170 C   0  0  0  0  0  0  0  0  0  0  0  0
   15.4269   -4.1460   17.8501 C   0  0  0  0  0  0  0  0  0  0  0  0
   14.1997   -4.5692   17.3421 C   0  0  0  0  0  0  0  0  0  0  0  0
   13.9731   -5.9162   17.0838 C   0  0  0  0  0  0  0  0  0  0  0  0
   15.0241   -6.7996   17.3300 C   0  0  0  0  0  0  0  0  0  0  0  0
   15.0943   -8.1609   17.2057 N   0  0  0  0  0  0  0  0  0  0  0  0
   16.3015   -8.6812   17.4777 N   0  0  0  0  0  0  0  0  0  0  0  0
   17.0094   -7.6082   17.8436 C   0  0  0  0  0  0  0  0  0  0  0  0
   16.2702   -6.3984   17.8053 C   0  0  0  0  0  0  0  0  0  0  0  0
   18.4151   -3.5418   18.0179 C   0  0  0  0  0  0  0  0  0  0  0  0
   19.2267   -2.6643   19.0040 C   0  0  0  0  0  0  0  0  0  0  0  0
  2  1  1  6
  2  3  1  0
  3  4  2  0
  4  5  1  0
  5  6  2  0
  6  7  1  0
  7  8  2  0
  2  9  1  0
  9 10  1  0
 10 11  1  0
 11 12  1  0
 12 13  1  0
 13 14  2  0
 14 15  1  0
 15 16  2  0
 16 17  1  0
 17 18  1  0
 18 19  1  0
 19 20  2  0
 20 21  1  0
 12 22  1  0
 22 23  1  0
  8  3  1  0
 23  9  1  0
 21 13  1  0
 21 17  2  0
M  END
>  <ref_pdb>  (149) 
A1105b

>  <subsites>  (149) 
5 - A3181/A/202/1,2 - A3977/A/202/1

>  <HIPPO Compound ID>  (149) 
51842

>  <energy_score>  (149) 
-66.313206

>  <fragmenstein_mode>  (149) 
expansion

>  <scratch_subdir>  (149) 
/opt/xchem-fragalysis-2/maxwin/BulkDock/SCRATCH/512157/C15317-P103

>  <smiles>  (149) 
C[C@H](c1ccncc1)N1CCN(c2cccc3[nH]ncc23)CC1

>  <alias>  (149) 
C15317-P103

>  <ref_mols>  (149) 
A3181b,A1105b

>  <inspiration_score>  (149) 
None

>  <tags>  (149) 
BulkDock Fragalysis export,fragmenstein_placed,openbind_a71ev2a_c1_scaffolds,openbind_a71ev2a_c1_knitwork_pure

>  <fragmenstein_outcome>  (149) 
acceptable

>  <fragmenstein_error>  (149) 


>  <distance_score>  (149) 
0.453542

>  <inchikey>  (149) 
CVBHTHVPQGKGJL-UHFFFAOYSA-N

>  <name>  (149) 
C15317-P103

>  <HIPPO Pose ID>  (149) 
142623

>  <Energy>  (149) 
132.582574

>  <exports>  (149) 
['/opt/xchem-fragalysis-2/maxwin/BulkDock/OUTPUTS/openbind_a71ev2a_c1_knitwork_pure_165VWF8.sdf', '/opt/xchem-fragalysis-2/maxwin/BulkDock/OUTPUTS/openbind_a71ev2a_c1_knitwork_pure_1B07PTU.sdf', '/opt/xchem-fragalysis-2/maxwin/BulkDock/OUTPUTS/openbind_a71ev2a_c1_knitwork_pure_1B07UWE.sdf', '/opt/xchem-fragalysis-2/maxwin/openbind-hippo/a71ev2a/openbind_a71ev2a_c1_scaffold_products.sdf', '/opt/xchem-fragalysis-2/maxwin/openbind-hippo/a71ev2a/cycle_01/bulkdock/openbind_a71ev2a_c1_scaffold_products.sdf', '/opt/xchem-fragalysis-2/maxwin/openbind-hippo/a71ev2a/cycle_01/bulkdock/openbind_a71ev2a_c1_scaffolds.sdf']

>  <fragmenstein_runtime>  (149) 
21.63341

$$$$
C71039-P103
     RDKit          3D

 24 27  0  0  0  0  0  0  0  0999 V2000
   24.4627   -5.8407   16.8515 C   0  0  0  0  0  0  0  0  0  0  0  0
   23.7939   -5.0676   17.7974 C   0  0  0  0  0  0  0  0  0  0  0  0
   22.6989   -4.2775   17.4261 C   0  0  0  0  0  0  0  0  0  0  0  0
   21.9945   -3.4632   18.3189 N   0  0  0  0  0  0  0  0  0  0  0  0
   20.6075   -3.0688   17.9571 C   0  0  0  0  0  0  0  0  0  0  0  0
   19.8759   -2.4201   19.1307 C   0  0  0  0  0  0  0  0  0  0  0  0
   19.9008   -3.2837   20.4014 C   0  0  0  0  0  0  0  0  0  0  0  0
   18.7276   -4.1291   20.6705 N   0  0  0  0  0  0  0  0  0  0  0  0
   18.2720   -4.9848   19.5711 C   0  0  0  0  0  0  0  0  0  0  0  0
   17.3209   -4.2619   18.5916 C   0  0  0  0  0  0  0  0  0  0  0  0
   16.2411   -5.1259   17.9839 C   0  0  0  0  0  0  0  0  0  0  0  0
   14.9903   -4.5454   17.7161 C   0  0  0  0  0  0  0  0  0  0  0  0
   13.9263   -5.3113   17.2287 C   0  0  0  0  0  0  0  0  0  0  0  0
   14.1229   -6.6866   17.0167 C   0  0  0  0  0  0  0  0  0  0  0  0
   13.3586   -7.7850   16.5590 C   0  0  0  0  0  0  0  0  0  0  0  0
   14.0571   -8.9227   16.4887 N   0  0  0  0  0  0  0  0  0  0  0  0
   15.2684   -8.5603   16.9410 N   0  0  0  0  0  0  0  0  0  0  0  0
   15.3776   -7.2316   17.2514 C   0  0  0  0  0  0  0  0  0  0  0  0
   16.4637   -6.4829   17.7043 C   0  0  0  0  0  0  0  0  0  0  0  0
   21.2105   -4.0813   20.5395 C   0  0  0  0  0  0  0  0  0  0  0  0
   22.3228   -3.4015   19.7500 C   0  0  0  0  0  0  0  0  0  0  0  0
   22.3656   -4.3301   16.0655 C   0  0  0  0  0  0  0  0  0  0  0  0
   23.0932   -5.1239   15.1846 C   0  0  0  0  0  0  0  0  0  0  0  0
   24.1411   -5.8865   15.5473 N   0  0  0  0  0  0  0  0  0  0  0  0
  1  2  2  0
  2  3  1  0
  3  4  1  0
  4  5  1  0
  5  6  1  0
  6  7  1  0
  7  8  1  0
  8  9  1  0
  9 10  1  0
 10 11  1  0
 11 12  2  0
 12 13  1  0
 13 14  2  0
 14 15  1  0
 15 16  2  0
 16 17  1  0
 17 18  1  0
 18 19  2  0
  7 20  1  0
 20 21  1  0
  3 22  2  0
 22 23  1  0
 23 24  2  0
 24  1  1  0
 21  4  1  0
 19 11  1  0
 18 14  1  0
M  END
>  <ref_pdb>  (150) 
A1105b

>  <subsites>  (150) 
5 - A3181/A/202/1,2 - A3977/A/202/1

>  <HIPPO Compound ID>  (150) 
72837

>  <energy_score>  (150) 
-33.140694

>  <fragmenstein_mode>  (150) 
expansion

>  <scratch_subdir>  (150) 
/opt/xchem-fragalysis-2/maxwin/BulkDock/SCRATCH/512157/C71039-P103

>  <smiles>  (150) 
c1cc(N2CCC(NCCc3ccc4cn[nH]c4c3)CC2)ccn1

>  <alias>  (150) 
C71039-P103

>  <ref_mols>  (150) 
A3181b,A1105b

>  <inspiration_score>  (150) 
None

>  <tags>  (150) 
BulkDock Fragalysis export,fragmenstein_placed,openbind_a71ev2a_c1_scaffolds,openbind_a71ev2a_c1_knitwork_pure

>  <fragmenstein_outcome>  (150) 
acceptable

>  <fragmenstein_error>  (150) 


>  <distance_score>  (150) 
0.963503

>  <inchikey>  (150) 
LHWDWDRIRYSRET-UHFFFAOYSA-N

>  <name>  (150) 
C71039-P103

>  <HIPPO Pose ID>  (150) 
142624

>  <Energy>  (150) 
69.874783

>  <exports>  (150) 
['/opt/xchem-fragalysis-2/maxwin/BulkDock/OUTPUTS/openbind_a71ev2a_c1_knitwork_pure_165VWF8.sdf', '/opt/xchem-fragalysis-2/maxwin/BulkDock/OUTPUTS/openbind_a71ev2a_c1_knitwork_pure_1B07PTU.sdf', '/opt/xchem-fragalysis-2/maxwin/BulkDock/OUTPUTS/openbind_a71ev2a_c1_knitwork_pure_1B07UWE.sdf', '/opt/xchem-fragalysis-2/maxwin/openbind-hippo/a71ev2a/openbind_a71ev2a_c1_scaffold_products.sdf', '/opt/xchem-fragalysis-2/maxwin/openbind-hippo/a71ev2a/cycle_01/bulkdock/openbind_a71ev2a_c1_scaffold_products.sdf', '/opt/xchem-fragalysis-2/maxwin/openbind-hippo/a71ev2a/cycle_01/bulkdock/openbind_a71ev2a_c1_scaffolds.sdf']

>  <fragmenstein_runtime>  (150) 
58.440308

$$$$
C3689-P239
     RDKit          3D

 11 12  0  0  0  0  0  0  0  0999 V2000
    8.2468   11.4404   24.8312 C   0  0  0  0  0  0  0  0  0  0  0  0
    7.4492   12.3157   25.5577 C   0  0  0  0  0  0  0  0  0  0  0  0
    6.4368   11.8083   26.3684 C   0  0  0  0  0  0  0  0  0  0  0  0
    6.2522   10.4328   26.4200 C   0  0  0  0  0  0  0  0  0  0  0  0
    5.2535    9.8246   27.2829 C   0  0  0  0  0  0  0  0  0  0  0  0
    4.3816    8.7685   27.1040 C   0  0  0  0  0  0  0  0  0  0  0  0
    3.7316    8.5988   28.3385 C   0  0  0  0  0  0  0  0  0  0  0  0
    4.1306    9.4985   29.2396 N   0  0  0  0  0  0  0  0  0  0  0  0
    5.0633   10.2066   28.5801 N   0  0  0  0  0  0  0  0  0  0  0  0
    7.0165    9.5631   25.7221 N   0  0  0  0  0  0  0  0  0  0  0  0
    7.9938   10.0844   24.9420 C   0  0  0  0  0  0  0  0  0  0  0  0
  1  2  2  0
  2  3  1  0
  3  4  2  0
  4  5  1  0
  5  6  2  0
  6  7  1  0
  7  8  2  0
  8  9  1  0
  4 10  1  0
 10 11  2  0
 11  1  1  0
  9  5  1  0
M  END
>  <ref_pdb>  (151) 
A3920a

>  <subsites>  (151) 
1 - Active Site

>  <HIPPO Compound ID>  (151) 
59001

>  <energy_score>  (151) 
-5.515014

>  <fragmenstein_mode>  (151) 
expansion

>  <scratch_subdir>  (151) 
/opt/xchem-fragalysis-2/maxwin/BulkDock/SCRATCH/512158/C3689-P239

>  <smiles>  (151) 
c1ccc(-c2ccn[nH]2)nc1

>  <alias>  (151) 
C3689-P239

>  <ref_mols>  (151) 
A0556a,A3920a

>  <inspiration_score>  (151) 
None

>  <tags>  (151) 
BulkDock Fragalysis export,fragmenstein_placed,openbind_a71ev2a_c1_scaffolds,openbind_a71ev2a_c1_knitwork_pure

>  <fragmenstein_outcome>  (151) 
acceptable

>  <fragmenstein_error>  (151) 


>  <distance_score>  (151) 
0.980596

>  <inchikey>  (151) 
FYTAAIVGKFAKKH-UHFFFAOYSA-N

>  <name>  (151) 
C3689-P239

>  <HIPPO Pose ID>  (151) 
145852

>  <Energy>  (151) 
16.73197

>  <exports>  (151) 
['/opt/xchem-fragalysis-2/maxwin/BulkDock/OUTPUTS/openbind_a71ev2a_c1_knitwork_pure_165VWF8.sdf', '/opt/xchem-fragalysis-2/maxwin/BulkDock/OUTPUTS/openbind_a71ev2a_c1_knitwork_pure_1B07PTU.sdf', '/opt/xchem-fragalysis-2/maxwin/BulkDock/OUTPUTS/openbind_a71ev2a_c1_knitwork_pure_1B07UWE.sdf', '/opt/xchem-fragalysis-2/maxwin/openbind-hippo/a71ev2a/openbind_a71ev2a_c1_scaffold_products.sdf', '/opt/xchem-fragalysis-2/maxwin/openbind-hippo/a71ev2a/cycle_01/bulkdock/openbind_a71ev2a_c1_scaffold_products.sdf', '/opt/xchem-fragalysis-2/maxwin/openbind-hippo/a71ev2a/cycle_01/bulkdock/openbind_a71ev2a_c1_scaffolds.sdf']

>  <fragmenstein_runtime>  (151) 
2.607806

$$$$
C46556-P493
     RDKit          3D

 15 16  0  0  0  0  0  0  0  0999 V2000
    7.7844   13.2287   22.6442 O   0  0  0  0  0  0  0  0  0  0  0  0
    8.8437   13.5511   23.1883 C   0  0  0  0  0  0  0  0  0  0  0  0
    9.2278   12.9766   24.5472 C   0  0  0  0  0  0  0  0  0  0  0  0
    8.3064   11.8563   25.0295 C   0  0  0  0  0  0  0  0  0  0  0  0
    7.3318   12.2608   26.1449 C   0  0  1  0  0  0  0  0  0  0  0  0
    6.3722   13.4058   25.8006 C   0  0  0  0  0  0  0  0  0  0  0  0
    5.0818   13.3239   26.6208 C   0  0  0  0  0  0  0  0  0  0  0  0
    5.3049   12.6605   27.9776 C   0  0  0  0  0  0  0  0  0  0  0  0
    5.8470   11.2999   27.8985 N   0  0  0  0  0  0  0  0  0  0  0  0
    6.5707   11.0289   26.6550 C   0  0  0  0  0  0  0  0  0  0  0  0
    9.8148   14.4663   22.5547 C   0  0  0  0  0  0  0  0  0  0  0  0
   11.0921   14.8733   23.0928 C   0  0  0  0  0  0  0  0  0  0  0  0
   11.8019   15.6175   22.1757 C   0  0  0  0  0  0  0  0  0  0  0  0
   10.8451   15.7971   20.7732 S   0  0  0  0  0  0  0  0  0  0  0  0
    9.5380   14.9687   21.3475 N   0  0  0  0  0  0  0  0  0  0  0  0
  1  2  2  0
  2  3  1  0
  3  4  1  0
  5  4  1  6
  5  6  1  0
  6  7  1  0
  7  8  1  0
  8  9  1  0
  9 10  1  0
  2 11  1  0
 11 12  1  0
 12 13  2  0
 13 14  1  0
 14 15  1  0
 10  5  1  0
 15 11  2  0
M  END
>  <ref_pdb>  (152) 
A4873b

>  <subsites>  (152) 
1 - Active Site

>  <HIPPO Compound ID>  (152) 
69067

>  <energy_score>  (152) 
-39.965239

>  <fragmenstein_mode>  (152) 
expansion

>  <scratch_subdir>  (152) 
/opt/xchem-fragalysis-2/maxwin/BulkDock/SCRATCH/512158/C46556-P493

>  <smiles>  (152) 
O=C(CC[C@H]1CCCNC1)c1ccsn1

>  <alias>  (152) 
C46556-P493

>  <ref_mols>  (152) 
A1775a,A4873b

>  <inspiration_score>  (152) 
None

>  <tags>  (152) 
BulkDock Fragalysis export,fragmenstein_placed,openbind_a71ev2a_c1_scaffolds,openbind_a71ev2a_c1_knitwork_pure

>  <fragmenstein_outcome>  (152) 
acceptable

>  <fragmenstein_error>  (152) 


>  <distance_score>  (152) 
0.925975

>  <inchikey>  (152) 
IOHXAAWNYVLFEF-UHFFFAOYSA-N

>  <name>  (152) 
C46556-P493

>  <HIPPO Pose ID>  (152) 
146038

>  <Energy>  (152) 
45.68866

>  <exports>  (152) 
['/opt/xchem-fragalysis-2/maxwin/BulkDock/OUTPUTS/openbind_a71ev2a_c1_knitwork_pure_165VWF8.sdf', '/opt/xchem-fragalysis-2/maxwin/BulkDock/OUTPUTS/openbind_a71ev2a_c1_knitwork_pure_1B07PTU.sdf', '/opt/xchem-fragalysis-2/maxwin/BulkDock/OUTPUTS/openbind_a71ev2a_c1_knitwork_pure_1B07UWE.sdf', '/opt/xchem-fragalysis-2/maxwin/openbind-hippo/a71ev2a/openbind_a71ev2a_c1_scaffold_products.sdf', '/opt/xchem-fragalysis-2/maxwin/openbind-hippo/a71ev2a/cycle_01/bulkdock/openbind_a71ev2a_c1_scaffold_products.sdf', '/opt/xchem-fragalysis-2/maxwin/openbind-hippo/a71ev2a/cycle_01/bulkdock/openbind_a71ev2a_c1_scaffolds.sdf']

>  <fragmenstein_runtime>  (152) 
6.529011

$$$$
C46573-P493
     RDKit          3D

 17 18  0  0  0  0  0  0  0  0999 V2000
   10.8111   15.4926   19.4595 C   0  0  0  0  0  0  0  0  0  0  0  0
   10.0007   15.0880   20.6816 C   0  0  0  0  0  0  0  0  0  0  0  0
   10.7117   15.0608   21.9414 N   0  0  0  0  0  0  0  0  0  0  0  0
   11.9176   15.6505   22.0310 N   0  0  0  0  0  0  0  0  0  0  0  0
   12.3437   15.3336   23.2434 C   0  0  0  0  0  0  0  0  0  0  0  0
   11.3758   14.6616   23.9896 C   0  0  0  0  0  0  0  0  0  0  0  0
   10.3231   14.4454   23.1156 C   0  0  0  0  0  0  0  0  0  0  0  0
    9.0960   13.7045   23.3338 C   0  0  0  0  0  0  0  0  0  0  0  0
    8.2412   13.5290   22.4653 O   0  0  0  0  0  0  0  0  0  0  0  0
    8.8942   13.1618   24.7485 C   0  0  0  0  0  0  0  0  0  0  0  0
    7.8413   12.0576   24.8008 C   0  0  0  0  0  0  0  0  0  0  0  0
    7.1771   11.9056   26.1718 C   0  0  2  0  0  0  0  0  0  0  0  0
    6.6107   10.4973   26.3935 C   0  0  0  0  0  0  0  0  0  0  0  0
    5.4888   10.4751   27.4307 C   0  0  0  0  0  0  0  0  0  0  0  0
    5.6285   11.5940   28.4561 C   0  0  0  0  0  0  0  0  0  0  0  0
    5.6867   12.9360   27.8757 N   0  0  0  0  0  0  0  0  0  0  0  0
    6.1110   12.9692   26.4687 C   0  0  0  0  0  0  0  0  0  0  0  0
  1  2  1  0
  2  3  1  0
  3  4  1  0
  4  5  2  0
  5  6  1  0
  6  7  2  0
  7  8  1  0
  8  9  2  0
  8 10  1  0
 10 11  1  0
 12 11  1  6
 12 13  1  0
 13 14  1  0
 14 15  1  0
 15 16  1  0
 16 17  1  0
  7  3  1  0
 17 12  1  0
M  END
>  <ref_pdb>  (153) 
A4873b

>  <subsites>  (153) 
1 - Active Site

>  <HIPPO Compound ID>  (153) 
135020

>  <energy_score>  (153) 
-10.593415

>  <fragmenstein_mode>  (153) 
expansion

>  <scratch_subdir>  (153) 
/opt/xchem-fragalysis-2/maxwin/BulkDock/SCRATCH/512158/C46573-P493

>  <smiles>  (153) 
CCn1nccc1C(=O)CC[C@@H]1CCCNC1

>  <alias>  (153) 
C46573-P493

>  <ref_mols>  (153) 
A1775a,A4873b

>  <inspiration_score>  (153) 
None

>  <tags>  (153) 
BulkDock Fragalysis export,fragmenstein_placed,openbind_a71ev2a_c1_scaffolds,openbind_a71ev2a_c1_knitwork_pure

>  <fragmenstein_outcome>  (153) 
acceptable

>  <fragmenstein_error>  (153) 


>  <distance_score>  (153) 
0.943684

>  <inchikey>  (153) 
HFDOTTQMGPTQDU-UHFFFAOYSA-N

>  <name>  (153) 
C46573-P493

>  <HIPPO Pose ID>  (153) 
146043

>  <Energy>  (153) 
19.180275

>  <exports>  (153) 
['/opt/xchem-fragalysis-2/maxwin/BulkDock/OUTPUTS/openbind_a71ev2a_c1_knitwork_pure_165VWF8.sdf', '/opt/xchem-fragalysis-2/maxwin/BulkDock/OUTPUTS/openbind_a71ev2a_c1_knitwork_pure_1B07PTU.sdf', '/opt/xchem-fragalysis-2/maxwin/BulkDock/OUTPUTS/openbind_a71ev2a_c1_knitwork_pure_1B07UWE.sdf', '/opt/xchem-fragalysis-2/maxwin/openbind-hippo/a71ev2a/openbind_a71ev2a_c1_scaffold_products.sdf', '/opt/xchem-fragalysis-2/maxwin/openbind-hippo/a71ev2a/cycle_01/bulkdock/openbind_a71ev2a_c1_scaffold_products.sdf', '/opt/xchem-fragalysis-2/maxwin/openbind-hippo/a71ev2a/cycle_01/bulkdock/openbind_a71ev2a_c1_scaffolds.sdf']

>  <fragmenstein_runtime>  (153) 
7.896192

$$$$
C9335-P174
     RDKit          3D

 18 19  0  0  0  0  0  0  0  0999 V2000
    9.4329   15.6277   24.6042 C   0  0  0  0  0  0  0  0  0  0  0  0
    8.7952   14.2917   24.3709 C   0  0  0  0  0  0  0  0  0  0  0  0
    9.5996   13.2845   23.5189 C   0  0  2  0  0  0  0  0  0  0  0  0
    9.6985   13.6236   22.0942 N   0  0  0  0  0  0  0  0  0  0  0  0
   10.4484   14.8196   21.6793 C   0  0  0  0  0  0  0  0  0  0  0  0
   11.9868   14.6898   21.6551 C   0  0  0  0  0  0  0  0  0  0  0  0
   12.6451   15.7926   20.8795 C   0  0  0  0  0  0  0  0  0  0  0  0
   13.5356   16.7782   21.2577 C   0  0  0  0  0  0  0  0  0  0  0  0
   13.8636   17.6054   20.2147 N   0  0  0  0  0  0  0  0  0  0  0  0
   13.2468   17.0878   19.1779 C   0  0  0  0  0  0  0  0  0  0  0  0
   12.5107   15.9896   19.5257 N   0  0  0  0  0  0  0  0  0  0  0  0
   11.7400   15.1999   18.6026 C   0  0  0  0  0  0  0  0  0  0  0  0
    8.9746   11.8788   23.6985 C   0  0  0  0  0  0  0  0  0  0  0  0
    7.8445   11.6166   24.4882 C   0  0  0  0  0  0  0  0  0  0  0  0
    7.4398   10.3089   24.7031 C   0  0  0  0  0  0  0  0  0  0  0  0
    8.0544    9.2395   24.1752 N   0  0  0  0  0  0  0  0  0  0  0  0
    9.1026    9.4859   23.3691 C   0  0  0  0  0  0  0  0  0  0  0  0
    9.5769   10.7652   23.1072 C   0  0  0  0  0  0  0  0  0  0  0  0
  1  2  1  0
  3  2  1  1
  3  4  1  0
  4  5  1  0
  5  6  1  0
  6  7  1  0
  7  8  2  0
  8  9  1  0
  9 10  2  0
 10 11  1  0
 11 12  1  0
  3 13  1  0
 13 14  2  0
 14 15  1  0
 15 16  2  0
 16 17  1  0
 17 18  2  0
 11  7  1  0
 18 13  1  0
M  END
>  <ref_pdb>  (154) 
A3371a

>  <subsites>  (154) 
1 - Active Site

>  <HIPPO Compound ID>  (154) 
60938

>  <energy_score>  (154) 
-17.769521

>  <fragmenstein_mode>  (154) 
expansion

>  <scratch_subdir>  (154) 
/opt/xchem-fragalysis-2/maxwin/BulkDock/SCRATCH/512158/C9335-P174

>  <smiles>  (154) 
CC[C@H](NCCc1cncn1C)c1ccncc1

>  <alias>  (154) 
C9335-P174

>  <ref_mols>  (154) 
A3207a,A3371a

>  <inspiration_score>  (154) 
None

>  <tags>  (154) 
BulkDock Fragalysis export,fragmenstein_placed,openbind_a71ev2a_c1_scaffolds,openbind_a71ev2a_c1_knitwork_pure

>  <fragmenstein_outcome>  (154) 
acceptable

>  <fragmenstein_error>  (154) 


>  <distance_score>  (154) 
0.914347

>  <inchikey>  (154) 
IAFIUIBPUCFPHK-UHFFFAOYSA-N

>  <name>  (154) 
C9335-P174

>  <HIPPO Pose ID>  (154) 
148314

>  <Energy>  (154) 
45.193357

>  <exports>  (154) 
['/opt/xchem-fragalysis-2/maxwin/BulkDock/OUTPUTS/openbind_a71ev2a_c1_knitwork_pure_165VWF8.sdf', '/opt/xchem-fragalysis-2/maxwin/BulkDock/OUTPUTS/openbind_a71ev2a_c1_knitwork_pure_1B07PTU.sdf', '/opt/xchem-fragalysis-2/maxwin/BulkDock/OUTPUTS/openbind_a71ev2a_c1_knitwork_pure_1B07UWE.sdf', '/opt/xchem-fragalysis-2/maxwin/openbind-hippo/a71ev2a/openbind_a71ev2a_c1_scaffold_products.sdf', '/opt/xchem-fragalysis-2/maxwin/openbind-hippo/a71ev2a/cycle_01/bulkdock/openbind_a71ev2a_c1_scaffold_products.sdf', '/opt/xchem-fragalysis-2/maxwin/openbind-hippo/a71ev2a/cycle_01/bulkdock/openbind_a71ev2a_c1_scaffolds.sdf']

>  <fragmenstein_runtime>  (154) 
1.816847

$$$$
C46353-P372
     RDKit          3D

 17 19  0  0  0  0  0  0  0  0999 V2000
    6.4023   10.6245   26.2842 C   0  0  0  0  0  0  0  0  0  0  0  0
    6.2050   11.9944   26.4365 C   0  0  0  0  0  0  0  0  0  0  0  0
    7.0712   12.9501   25.8589 C   0  0  0  0  0  0  0  0  0  0  0  0
    6.8119   14.4319   26.0136 C   0  0  0  0  0  0  0  0  0  0  0  0
    5.3841   14.7476   25.9417 N   0  0  0  0  0  0  0  0  0  0  0  0
    5.0960   16.1909   25.8320 C   0  0  2  0  0  0  0  0  0  0  0  0
    5.7046   17.0211   26.9734 C   0  0  0  0  0  0  0  0  0  0  0  0
    5.2327   18.4716   26.8963 C   0  0  0  0  0  0  0  0  0  0  0  0
    3.7104   18.5610   26.8707 C   0  0  0  0  0  0  0  0  0  0  0  0
    3.1450   17.7951   25.7621 N   0  0  0  0  0  0  0  0  0  0  0  0
    3.5568   16.3878   25.8154 C   0  0  0  0  0  0  0  0  0  0  0  0
    8.1911   12.4212   25.1875 C   0  0  0  0  0  0  0  0  0  0  0  0
    9.2468   13.0171   24.5425 N   0  0  0  0  0  0  0  0  0  0  0  0
   10.1739   12.1563   24.0867 N   0  0  0  0  0  0  0  0  0  0  0  0
    9.6400   10.9614   24.3459 C   0  0  0  0  0  0  0  0  0  0  0  0
    8.4239   11.0588   25.0490 C   0  0  0  0  0  0  0  0  0  0  0  0
    7.5037   10.1466   25.5747 C   0  0  0  0  0  0  0  0  0  0  0  0
  1  2  2  0
  2  3  1  0
  3  4  1  0
  4  5  1  0
  6  5  1  1
  6  7  1  0
  7  8  1  0
  8  9  1  0
  9 10  1  0
 10 11  1  0
  3 12  2  0
 12 13  1  0
 13 14  1  0
 14 15  2  0
 15 16  1  0
 16 17  2  0
 17  1  1  0
 11  6  1  0
 16 12  1  0
M  END
>  <ref_pdb>  (155) 
A4456b

>  <subsites>  (155) 
1 - Active Site,5 - A3181/A/202/1,6 - A0486/A/147/1

>  <HIPPO Compound ID>  (155) 
53746

>  <energy_score>  (155) 
-37.302584

>  <fragmenstein_mode>  (155) 
expansion

>  <scratch_subdir>  (155) 
/opt/xchem-fragalysis-2/maxwin/BulkDock/SCRATCH/512158/C46353-P372

>  <smiles>  (155) 
c1cc(CN[C@@H]2CCCNC2)c2[nH]ncc2c1

>  <alias>  (155) 
C46353-P372

>  <ref_mols>  (155) 
A3181b,A4456b,A0486a

>  <inspiration_score>  (155) 
None

>  <tags>  (155) 
BulkDock Fragalysis export,fragmenstein_placed,openbind_a71ev2a_c1_scaffolds,openbind_a71ev2a_c1_knitwork_pure

>  <fragmenstein_outcome>  (155) 
acceptable

>  <fragmenstein_error>  (155) 


>  <distance_score>  (155) 
0.487419

>  <inchikey>  (155) 
UKXGLWDFUDFURM-UHFFFAOYSA-N

>  <name>  (155) 
C46353-P372

>  <HIPPO Pose ID>  (155) 
148516

>  <Energy>  (155) 
42.961001

>  <exports>  (155) 
['/opt/xchem-fragalysis-2/maxwin/BulkDock/OUTPUTS/openbind_a71ev2a_c1_knitwork_pure_165VWF8.sdf', '/opt/xchem-fragalysis-2/maxwin/BulkDock/OUTPUTS/openbind_a71ev2a_c1_knitwork_pure_1B07PTU.sdf', '/opt/xchem-fragalysis-2/maxwin/BulkDock/OUTPUTS/openbind_a71ev2a_c1_knitwork_pure_1B07UWE.sdf', '/opt/xchem-fragalysis-2/maxwin/openbind-hippo/a71ev2a/openbind_a71ev2a_c1_scaffold_products.sdf', '/opt/xchem-fragalysis-2/maxwin/openbind-hippo/a71ev2a/cycle_01/bulkdock/openbind_a71ev2a_c1_scaffold_products.sdf', '/opt/xchem-fragalysis-2/maxwin/openbind-hippo/a71ev2a/cycle_01/bulkdock/openbind_a71ev2a_c1_scaffolds.sdf']

>  <fragmenstein_runtime>  (155) 
2.420284

$$$$
C47846-P481
     RDKit          3D

 22 24  0  0  0  0  0  0  0  0999 V2000
    7.0729   14.7704    5.0722 N   0  0  0  0  0  0  0  0  0  0  0  0
    7.3093   13.7593    4.1207 C   0  0  0  0  0  0  0  0  0  0  0  0
    7.1530   12.4262    4.4714 C   0  0  0  0  0  0  0  0  0  0  0  0
    7.4340   11.4194    3.5538 C   0  0  0  0  0  0  0  0  0  0  0  0
    7.9249   11.7280    2.2781 C   0  0  0  0  0  0  0  0  0  0  0  0
    8.1426   13.0700    1.9026 C   0  0  0  0  0  0  0  0  0  0  0  0
    7.8846   14.0593    2.8769 C   0  0  0  0  0  0  0  0  0  0  0  0
    8.6615   13.3807    0.6315 N   0  0  0  0  0  0  0  0  0  0  0  0
    8.4878   14.7580    0.0867 C   0  0  0  0  0  0  0  0  0  0  0  0
    9.7912   15.5969    0.1408 C   0  0  0  0  0  0  0  0  0  0  0  0
    9.8618   16.6694   -0.3156 O   0  0  0  0  0  0  0  0  0  0  0  0
   10.8714   14.7261    0.8290 N   0  0  0  0  0  0  0  0  0  0  0  0
   12.2807   14.9564    1.0121 C   0  0  0  0  0  0  0  0  0  0  0  0
   13.1700   14.1312    0.0737 C   0  0  1  0  0  0  0  0  0  0  0  0
   13.1301   12.6288    0.4093 C   0  0  0  0  0  0  0  0  0  0  0  0
   13.3833   11.7493   -0.8146 C   0  0  0  0  0  0  0  0  0  0  0  0
   14.3159   12.4302   -1.8092 C   0  0  0  0  0  0  0  0  0  0  0  0
   13.8155   13.7159   -2.2959 N   0  0  0  0  0  0  0  0  0  0  0  0
   12.8520   14.3723   -1.4067 C   0  0  0  0  0  0  0  0  0  0  0  0
    8.5662   12.3194   -0.3850 C   0  0  0  0  0  0  0  0  0  0  0  0
    9.0591   10.9978    0.1714 C   0  0  0  0  0  0  0  0  0  0  0  0
    8.1705   10.5836    1.3285 C   0  0  0  0  0  0  0  0  0  0  0  0
  1  2  1  0
  2  3  2  0
  3  4  1  0
  4  5  2  0
  5  6  1  0
  6  7  2  0
  6  8  1  0
  8  9  1  0
  9 10  1  0
 10 11  2  0
 10 12  1  0
 12 13  1  0
 14 13  1  1
 14 15  1  0
 15 16  1  0
 16 17  1  0
 17 18  1  0
 18 19  1  0
  8 20  1  0
 20 21  1  0
 21 22  1  0
  7  2  1  0
 19 14  1  0
 22  5  1  0
M  END
>  <ref_pdb>  (156) 
A4836a

>  <subsites>  (156) 
1 - Active Site,3 - A0541/A/147/1

>  <HIPPO Compound ID>  (156) 
46989

>  <energy_score>  (156) 
-44.122912

>  <fragmenstein_mode>  (156) 
expansion

>  <scratch_subdir>  (156) 
/opt/xchem-fragalysis-2/maxwin/BulkDock/SCRATCH/512158/C47846-P481

>  <smiles>  (156) 
Nc1ccc2c(c1)N(CC(=O)NC[C@H]1CCCNC1)CCC2

>  <alias>  (156) 
C47846-P481

>  <ref_mols>  (156) 
A4836a,A0586a

>  <inspiration_score>  (156) 
None

>  <tags>  (156) 
BulkDock Fragalysis export,fragmenstein_placed,openbind_a71ev2a_c1_scaffolds,openbind_a71ev2a_c1_knitwork_pure

>  <fragmenstein_outcome>  (156) 
acceptable

>  <fragmenstein_error>  (156) 


>  <distance_score>  (156) 
0.675271

>  <inchikey>  (156) 
GUZPTPUPXMQGEW-UHFFFAOYSA-N

>  <name>  (156) 
C47846-P481

>  <HIPPO Pose ID>  (156) 
149279

>  <Energy>  (156) 
47.536786

>  <exports>  (156) 
['/opt/xchem-fragalysis-2/maxwin/BulkDock/OUTPUTS/openbind_a71ev2a_c1_knitwork_pure_165VWF8.sdf', '/opt/xchem-fragalysis-2/maxwin/BulkDock/OUTPUTS/openbind_a71ev2a_c1_knitwork_pure_1B07PTU.sdf', '/opt/xchem-fragalysis-2/maxwin/BulkDock/OUTPUTS/openbind_a71ev2a_c1_knitwork_pure_1B07UWE.sdf', '/opt/xchem-fragalysis-2/maxwin/openbind-hippo/a71ev2a/openbind_a71ev2a_c1_scaffold_products.sdf', '/opt/xchem-fragalysis-2/maxwin/openbind-hippo/a71ev2a/cycle_01/bulkdock/openbind_a71ev2a_c1_scaffold_products.sdf', '/opt/xchem-fragalysis-2/maxwin/openbind-hippo/a71ev2a/cycle_01/bulkdock/openbind_a71ev2a_c1_scaffolds.sdf']

>  <fragmenstein_runtime>  (156) 
4.075419

$$$$
C47877-P481
     RDKit          3D

 22 24  0  0  0  0  0  0  0  0999 V2000
    9.9277   13.9517    0.6624 C   0  0  0  0  0  0  0  0  0  0  0  0
    8.5206   13.5252    0.6270 N   0  0  0  0  0  0  0  0  0  0  0  0
    8.1984   12.5872   -0.4650 C   0  0  0  0  0  0  0  0  0  0  0  0
    8.7451   11.1941   -0.1894 C   0  0  0  0  0  0  0  0  0  0  0  0
    8.1121   10.6312    1.0721 C   0  0  0  0  0  0  0  0  0  0  0  0
    7.9506   11.6650    2.1551 C   0  0  0  0  0  0  0  0  0  0  0  0
    7.5805   11.2270    3.4339 C   0  0  0  0  0  0  0  0  0  0  0  0
    7.3614   12.1374    4.4629 C   0  0  0  0  0  0  0  0  0  0  0  0
    7.4656   13.5011    4.2239 C   0  0  0  0  0  0  0  0  0  0  0  0
    7.8106   13.9556    2.9524 C   0  0  0  0  0  0  0  0  0  0  0  0
    7.8037   15.3202    2.6711 N   0  0  0  0  0  0  0  0  0  0  0  0
    7.6948   16.5408    3.6164 C   0  0  0  0  0  0  0  0  0  0  0  0
    7.5170   16.5917    4.7693 O   0  0  0  0  0  0  0  0  0  0  0  0
    7.8845   17.7882    2.8190 C   0  0  0  0  0  0  0  0  0  0  0  0
    7.2380   18.0276    1.6660 C   0  0  0  0  0  0  0  0  0  0  0  0
    7.3055   19.2862    0.8135 C   0  0  1  0  0  0  0  0  0  0  0  0
    5.8873   19.8008    0.4819 C   0  0  0  0  0  0  0  0  0  0  0  0
    5.4837   21.0396    1.2849 C   0  0  0  0  0  0  0  0  0  0  0  0
    6.1829   21.0950    2.6360 C   0  0  0  0  0  0  0  0  0  0  0  0
    7.6376   21.1644    2.5071 N   0  0  0  0  0  0  0  0  0  0  0  0
    8.1749   20.4452    1.3493 C   0  0  0  0  0  0  0  0  0  0  0  0
    8.0964   13.0449    1.9029 C   0  0  0  0  0  0  0  0  0  0  0  0
  1  2  1  0
  2  3  1  0
  3  4  1  0
  4  5  1  0
  5  6  1  0
  6  7  2  0
  7  8  1  0
  8  9  2  0
  9 10  1  0
 10 11  1  0
 11 12  1  0
 12 13  2  0
 12 14  1  0
 14 15  2  3
 15 16  1  0
 16 17  1  1
 17 18  1  0
 18 19  1  0
 19 20  1  0
 20 21  1  0
 10 22  2  0
 22  2  1  0
 22  6  1  0
 21 16  1  0
M  END
>  <ref_pdb>  (157) 
A4836a

>  <subsites>  (157) 
1 - Active Site,3 - A0541/A/147/1

>  <HIPPO Compound ID>  (157) 
77581

>  <energy_score>  (157) 
-52.217969

>  <fragmenstein_mode>  (157) 
expansion

>  <scratch_subdir>  (157) 
/opt/xchem-fragalysis-2/maxwin/BulkDock/SCRATCH/512158/C47877-P481

>  <smiles>  (157) 
CN1CCCc2cccc(NC(=O)C=C[C@H]3CCCNC3)c21

>  <alias>  (157) 
C47877-P481

>  <ref_mols>  (157) 
A4836a,A0586a

>  <inspiration_score>  (157) 
None

>  <tags>  (157) 
BulkDock Fragalysis export,fragmenstein_placed,openbind_a71ev2a_c1_scaffolds,openbind_a71ev2a_c1_knitwork_pure

>  <fragmenstein_outcome>  (157) 
acceptable

>  <fragmenstein_error>  (157) 


>  <distance_score>  (157) 
0.398039

>  <inchikey>  (157) 
QMWIEGHYOIRDQB-UHFFFAOYSA-N

>  <name>  (157) 
C47877-P481

>  <HIPPO Pose ID>  (157) 
149307

>  <Energy>  (157) 
47.593808

>  <exports>  (157) 
['/opt/xchem-fragalysis-2/maxwin/BulkDock/OUTPUTS/openbind_a71ev2a_c1_knitwork_pure_165VWF8.sdf', '/opt/xchem-fragalysis-2/maxwin/BulkDock/OUTPUTS/openbind_a71ev2a_c1_knitwork_pure_1B07PTU.sdf', '/opt/xchem-fragalysis-2/maxwin/BulkDock/OUTPUTS/openbind_a71ev2a_c1_knitwork_pure_1B07UWE.sdf', '/opt/xchem-fragalysis-2/maxwin/openbind-hippo/a71ev2a/openbind_a71ev2a_c1_scaffold_products.sdf', '/opt/xchem-fragalysis-2/maxwin/openbind-hippo/a71ev2a/cycle_01/bulkdock/openbind_a71ev2a_c1_scaffold_products.sdf', '/opt/xchem-fragalysis-2/maxwin/openbind-hippo/a71ev2a/cycle_01/bulkdock/openbind_a71ev2a_c1_scaffolds.sdf']

>  <fragmenstein_runtime>  (157) 
1.844841

$$$$
C46339-P374
     RDKit          3D

 16 18  0  0  0  0  0  0  0  0999 V2000
   19.9027   17.7463    1.8220 C   0  0  0  0  0  0  0  0  0  0  0  0
   20.6838   16.6269    2.1496 C   0  0  0  0  0  0  0  0  0  0  0  0
   20.0049   15.4483    2.4545 C   0  0  0  0  0  0  0  0  0  0  0  0
   20.4492   14.2131    2.8477 N   0  0  0  0  0  0  0  0  0  0  0  0
   19.4605   13.3108    3.0330 N   0  0  0  0  0  0  0  0  0  0  0  0
   18.3511   14.0209    2.8133 C   0  0  0  0  0  0  0  0  0  0  0  0
   18.6210   15.3562    2.4448 C   0  0  0  0  0  0  0  0  0  0  0  0
   17.8630   16.4947    2.1170 C   0  0  0  0  0  0  0  0  0  0  0  0
   18.5034   17.6995    1.7677 C   0  0  0  0  0  0  0  0  0  0  0  0
   17.6986   18.8166    1.5193 N   0  0  0  0  0  0  0  0  0  0  0  0
   18.2107   20.0001    0.8154 C   0  0  1  0  0  0  0  0  0  0  0  0
   18.4481   19.6917   -0.6728 C   0  0  0  0  0  0  0  0  0  0  0  0
   18.2659   20.9172   -1.5716 C   0  0  0  0  0  0  0  0  0  0  0  0
   18.5207   22.2182   -0.8184 C   0  0  0  0  0  0  0  0  0  0  0  0
   17.5848   22.4108    0.2896 N   0  0  0  0  0  0  0  0  0  0  0  0
   17.1997   21.1634    0.9619 C   0  0  0  0  0  0  0  0  0  0  0  0
  1  2  2  0
  2  3  1  0
  3  4  1  0
  4  5  1  0
  5  6  2  0
  6  7  1  0
  7  8  1  0
  8  9  2  0
  9 10  1  0
 11 10  1  1
 11 12  1  0
 12 13  1  0
 13 14  1  0
 14 15  1  0
 15 16  1  0
  9  1  1  0
 16 11  1  0
  7  3  2  0
M  END
>  <ref_pdb>  (158) 
A4463a

>  <subsites>  (158) 
1 - Active Site,6 - A0486/A/147/1

>  <HIPPO Compound ID>  (158) 
50934

>  <energy_score>  (158) 
-30.961652

>  <fragmenstein_mode>  (158) 
expansion

>  <scratch_subdir>  (158) 
/opt/xchem-fragalysis-2/maxwin/BulkDock/SCRATCH/512158/C46339-P374

>  <smiles>  (158) 
c1cc2[nH]ncc2cc1N[C@H]1CCCNC1

>  <alias>  (158) 
C46339-P374

>  <ref_mols>  (158) 
A0486a,A4463a

>  <inspiration_score>  (158) 
None

>  <tags>  (158) 
BulkDock Fragalysis export,fragmenstein_placed,openbind_a71ev2a_c1_scaffolds,openbind_a71ev2a_c1_knitwork_pure

>  <fragmenstein_outcome>  (158) 
acceptable

>  <fragmenstein_error>  (158) 


>  <distance_score>  (158) 
0.273756

>  <inchikey>  (158) 
QHJYNEFJLIJZEI-UHFFFAOYSA-N

>  <name>  (158) 
C46339-P374

>  <HIPPO Pose ID>  (158) 
149819

>  <Energy>  (158) 
53.863634

>  <exports>  (158) 
['/opt/xchem-fragalysis-2/maxwin/BulkDock/OUTPUTS/openbind_a71ev2a_c1_knitwork_pure_165VWF8.sdf', '/opt/xchem-fragalysis-2/maxwin/BulkDock/OUTPUTS/openbind_a71ev2a_c1_knitwork_pure_1B07PTU.sdf', '/opt/xchem-fragalysis-2/maxwin/BulkDock/OUTPUTS/openbind_a71ev2a_c1_knitwork_pure_1B07UWE.sdf', '/opt/xchem-fragalysis-2/maxwin/openbind-hippo/a71ev2a/openbind_a71ev2a_c1_scaffold_products.sdf', '/opt/xchem-fragalysis-2/maxwin/openbind-hippo/a71ev2a/cycle_01/bulkdock/openbind_a71ev2a_c1_scaffold_products.sdf', '/opt/xchem-fragalysis-2/maxwin/openbind-hippo/a71ev2a/cycle_01/bulkdock/openbind_a71ev2a_c1_scaffolds.sdf']

>  <fragmenstein_runtime>  (158) 
1.331233

$$$$
C54239-P153
     RDKit          3D

 15 16  0  0  0  0  0  0  0  0999 V2000
    7.8133   14.0469   25.4861 C   0  0  0  0  0  0  0  0  0  0  0  0
    8.6906   13.1112   24.6546 C   0  0  2  0  0  0  0  0  0  0  0  0
    8.6505   13.5882   23.1928 C   0  0  0  0  0  0  0  0  0  0  0  0
    7.7099   13.2867   22.4498 O   0  0  0  0  0  0  0  0  0  0  0  0
    9.7798   14.3993   22.6985 C   0  0  0  0  0  0  0  0  0  0  0  0
    9.9399   14.8497   21.3400 C   0  0  0  0  0  0  0  0  0  0  0  0
   11.1411   15.4998   21.1658 C   0  0  0  0  0  0  0  0  0  0  0  0
   11.9419   15.5378   22.6622 S   0  0  0  0  0  0  0  0  0  0  0  0
   10.7730   14.7512   23.5253 N   0  0  0  0  0  0  0  0  0  0  0  0
    8.3327   11.6401   24.8022 C   0  0  0  0  0  0  0  0  0  0  0  0
    9.0559   10.6765   24.0872 C   0  0  0  0  0  0  0  0  0  0  0  0
    8.7708    9.3393   24.2978 C   0  0  0  0  0  0  0  0  0  0  0  0
    7.8241    8.9086   25.1619 N   0  0  0  0  0  0  0  0  0  0  0  0
    7.1205    9.8407   25.8240 C   0  0  0  0  0  0  0  0  0  0  0  0
    7.3363   11.1956   25.6803 C   0  0  0  0  0  0  0  0  0  0  0  0
  2  1  1  1
  2  3  1  0
  3  4  2  0
  3  5  1  0
  5  6  1  0
  6  7  2  0
  7  8  1  0
  8  9  1  0
  2 10  1  0
 10 11  2  0
 11 12  1  0
 12 13  2  0
 13 14  1  0
 14 15  2  0
  9  5  2  0
 15 10  1  0
M  END
>  <ref_pdb>  (159) 
A3207a

>  <subsites>  (159) 
1 - Active Site

>  <HIPPO Compound ID>  (159) 
134972

>  <energy_score>  (159) 
-29.457437

>  <fragmenstein_mode>  (159) 
expansion

>  <scratch_subdir>  (159) 
/opt/xchem-fragalysis-2/maxwin/BulkDock/SCRATCH/512158/C54239-P153

>  <smiles>  (159) 
C[C@H](C(=O)c1ccsn1)c1ccncc1

>  <alias>  (159) 
C54239-P153

>  <ref_mols>  (159) 
A3207a,A1775a

>  <inspiration_score>  (159) 
None

>  <tags>  (159) 
BulkDock Fragalysis export,fragmenstein_placed,openbind_a71ev2a_c1_scaffolds,openbind_a71ev2a_c1_knitwork_pure

>  <fragmenstein_outcome>  (159) 
acceptable

>  <fragmenstein_error>  (159) 


>  <distance_score>  (159) 
0.979086

>  <inchikey>  (159) 
LXFPHGKSVKIPAM-UHFFFAOYSA-N

>  <name>  (159) 
C54239-P153

>  <HIPPO Pose ID>  (159) 
150225

>  <Energy>  (159) 
63.476328

>  <exports>  (159) 
['/opt/xchem-fragalysis-2/maxwin/BulkDock/OUTPUTS/openbind_a71ev2a_c1_knitwork_pure_165VWF8.sdf', '/opt/xchem-fragalysis-2/maxwin/BulkDock/OUTPUTS/openbind_a71ev2a_c1_knitwork_pure_1B07PTU.sdf', '/opt/xchem-fragalysis-2/maxwin/BulkDock/OUTPUTS/openbind_a71ev2a_c1_knitwork_pure_1B07UWE.sdf', '/opt/xchem-fragalysis-2/maxwin/openbind-hippo/a71ev2a/openbind_a71ev2a_c1_scaffold_products.sdf', '/opt/xchem-fragalysis-2/maxwin/openbind-hippo/a71ev2a/cycle_01/bulkdock/openbind_a71ev2a_c1_scaffold_products.sdf', '/opt/xchem-fragalysis-2/maxwin/openbind-hippo/a71ev2a/cycle_01/bulkdock/openbind_a71ev2a_c1_scaffolds.sdf']

>  <fragmenstein_runtime>  (159) 
2.931869

$$$$
C60323-P153
     RDKit          3D

 15 16  0  0  0  0  0  0  0  0999 V2000
    5.3323   10.6054   27.2098 N   0  0  0  0  0  0  0  0  0  0  0  0
    6.2340   10.5928   26.4800 C   0  0  0  0  0  0  0  0  0  0  0  0
    7.3549   10.7523   25.6109 C   0  0  0  0  0  0  0  0  0  0  0  0
    7.8795   12.0216   25.4513 C   0  0  0  0  0  0  0  0  0  0  0  0
    8.9242   12.1954   24.5599 C   0  0  0  0  0  0  0  0  0  0  0  0
    9.4745   13.4667   24.3608 N   0  0  0  0  0  0  0  0  0  0  0  0
    8.9928   14.1207   23.1282 C   0  0  0  0  0  0  0  0  0  0  0  0
   10.0304   14.7291   22.2472 C   0  0  0  0  0  0  0  0  0  0  0  0
   11.3785   14.9448   22.4602 C   0  0  0  0  0  0  0  0  0  0  0  0
   11.8494   15.4631   21.2832 N   0  0  0  0  0  0  0  0  0  0  0  0
   10.7877   15.5716   20.4298 C   0  0  0  0  0  0  0  0  0  0  0  0
    9.6755   15.1504   20.9870 N   0  0  0  0  0  0  0  0  0  0  0  0
    9.3553   11.1012   23.8128 C   0  0  0  0  0  0  0  0  0  0  0  0
    8.8095    9.8556   24.0773 C   0  0  0  0  0  0  0  0  0  0  0  0
    7.8199    9.6541   24.9781 N   0  0  0  0  0  0  0  0  0  0  0  0
  1  2  3  0
  2  3  1  0
  3  4  2  0
  4  5  1  0
  5  6  1  0
  6  7  1  0
  7  8  1  0
  8  9  2  0
  9 10  1  0
 10 11  1  0
 11 12  2  0
  5 13  2  0
 13 14  1  0
 14 15  2  0
 15  3  1  0
 12  8  1  0
M  END
>  <ref_pdb>  (160) 
A3207a

>  <subsites>  (160) 
1 - Active Site

>  <HIPPO Compound ID>  (160) 
46563

>  <energy_score>  (160) 
-9.565053

>  <fragmenstein_mode>  (160) 
expansion

>  <scratch_subdir>  (160) 
/opt/xchem-fragalysis-2/maxwin/BulkDock/SCRATCH/512158/C60323-P153

>  <smiles>  (160) 
N#Cc1cc(NCc2c[nH]cn2)ccn1

>  <alias>  (160) 
C60323-P153

>  <ref_mols>  (160) 
A3207a,A3371a

>  <inspiration_score>  (160) 
None

>  <tags>  (160) 
BulkDock Fragalysis export,fragmenstein_placed,openbind_a71ev2a_c1_scaffolds,openbind_a71ev2a_c1_knitwork_pure

>  <fragmenstein_outcome>  (160) 
acceptable

>  <fragmenstein_error>  (160) 


>  <distance_score>  (160) 
0.901459

>  <inchikey>  (160) 
QTXYAPLSYSHZLH-UHFFFAOYSA-N

>  <name>  (160) 
C60323-P153

>  <HIPPO Pose ID>  (160) 
151552

>  <Energy>  (160) 
57.068267

>  <exports>  (160) 
['/opt/xchem-fragalysis-2/maxwin/BulkDock/OUTPUTS/openbind_a71ev2a_c1_knitwork_pure_165VWF8.sdf', '/opt/xchem-fragalysis-2/maxwin/BulkDock/OUTPUTS/openbind_a71ev2a_c1_knitwork_pure_1B07PTU.sdf', '/opt/xchem-fragalysis-2/maxwin/BulkDock/OUTPUTS/openbind_a71ev2a_c1_knitwork_pure_1B07UWE.sdf', '/opt/xchem-fragalysis-2/maxwin/openbind-hippo/a71ev2a/openbind_a71ev2a_c1_scaffold_products.sdf', '/opt/xchem-fragalysis-2/maxwin/openbind-hippo/a71ev2a/cycle_01/bulkdock/openbind_a71ev2a_c1_scaffold_products.sdf', '/opt/xchem-fragalysis-2/maxwin/openbind-hippo/a71ev2a/cycle_01/bulkdock/openbind_a71ev2a_c1_scaffolds.sdf']

>  <fragmenstein_runtime>  (160) 
1.491195

$$$$
C48580-P124
     RDKit          3D

 14 15  0  0  0  0  0  0  0  0999 V2000
    5.8860   13.2101   26.5371 C   0  0  0  0  0  0  0  0  0  0  0  0
    6.6324   12.1057   25.7844 C   0  0  2  0  0  0  0  0  0  0  0  0
    6.2650   10.8289   26.4936 C   0  0  0  0  0  0  0  0  0  0  0  0
    5.9928    9.7830   25.9165 O   0  0  0  0  0  0  0  0  0  0  0  0
    8.0910   12.3114   25.7909 N   0  0  0  0  0  0  0  0  0  0  0  0
    8.5402   13.6782   25.4726 C   0  0  0  0  0  0  0  0  0  0  0  0
    9.9571   13.6241   24.9297 C   0  0  0  0  0  0  0  0  0  0  0  0
    9.9731   12.2453   24.3983 C   0  0  0  0  0  0  0  0  0  0  0  0
   10.8977   11.6727   23.5474 C   0  0  0  0  0  0  0  0  0  0  0  0
   10.7202   10.3418   23.2134 C   0  0  0  0  0  0  0  0  0  0  0  0
   11.8729    9.5208   22.0115 Br  0  0  0  0  0  0  0  0  0  0  0  0
    9.6750    9.5982   23.7337 C   0  0  0  0  0  0  0  0  0  0  0  0
    8.7686   10.2014   24.5960 C   0  0  0  0  0  0  0  0  0  0  0  0
    8.8920   11.5348   24.9218 C   0  0  0  0  0  0  0  0  0  0  0  0
  2  1  1  1
  2  3  1  0
  3  4  2  0
  2  5  1  0
  5  6  1  0
  6  7  1  0
  7  8  1  0
  8  9  2  0
  9 10  1  0
 10 11  1  0
 10 12  2  0
 12 13  1  0
 13 14  2  0
 14  5  1  0
 14  8  1  0
M  END
>  <ref_pdb>  (161) 
A1778a

>  <subsites>  (161) 
1 - Active Site

>  <HIPPO Compound ID>  (161) 
45675

>  <energy_score>  (161) 
-15.755622

>  <fragmenstein_mode>  (161) 
expansion

>  <scratch_subdir>  (161) 
/opt/xchem-fragalysis-2/maxwin/BulkDock/SCRATCH/512158/C48580-P124

>  <smiles>  (161) 
C[C@H](C=O)N1CCc2cc(Br)ccc21

>  <alias>  (161) 
C48580-P124

>  <ref_mols>  (161) 
A1778a,A4570a

>  <inspiration_score>  (161) 
None

>  <tags>  (161) 
BulkDock Fragalysis export,fragmenstein_placed,openbind_a71ev2a_c1_scaffolds,openbind_a71ev2a_c1_knitwork_pure

>  <fragmenstein_outcome>  (161) 
acceptable

>  <fragmenstein_error>  (161) 


>  <distance_score>  (161) 
0.874583

>  <inchikey>  (161) 
UQXXRJNOVZBMSS-UHFFFAOYSA-N

>  <name>  (161) 
C48580-P124

>  <HIPPO Pose ID>  (161) 
152891

>  <Energy>  (161) 
63.687077

>  <exports>  (161) 
['/opt/xchem-fragalysis-2/maxwin/BulkDock/OUTPUTS/openbind_a71ev2a_c1_knitwork_pure_165VWF8.sdf', '/opt/xchem-fragalysis-2/maxwin/BulkDock/OUTPUTS/openbind_a71ev2a_c1_knitwork_pure_1B07PTU.sdf', '/opt/xchem-fragalysis-2/maxwin/BulkDock/OUTPUTS/openbind_a71ev2a_c1_knitwork_pure_1B07UWE.sdf', '/opt/xchem-fragalysis-2/maxwin/openbind-hippo/a71ev2a/openbind_a71ev2a_c1_scaffold_products.sdf', '/opt/xchem-fragalysis-2/maxwin/openbind-hippo/a71ev2a/cycle_01/bulkdock/openbind_a71ev2a_c1_scaffold_products.sdf', '/opt/xchem-fragalysis-2/maxwin/openbind-hippo/a71ev2a/cycle_01/bulkdock/openbind_a71ev2a_c1_scaffolds.sdf']

>  <fragmenstein_runtime>  (161) 
0.883314

$$$$
C45982-P173
     RDKit          3D

 23 26  0  0  0  0  0  0  0  0999 V2000
    7.4601   13.5363   22.1074 O   0  0  0  0  0  0  0  0  0  0  0  0
    7.6780   14.1861   23.3841 S   0  0  0  0  0  0  0  0  0  0  0  0
    6.5437   14.7059   24.1261 O   0  0  0  0  0  0  0  0  0  0  0  0
    8.7970   15.5804   23.2727 C   0  0  1  0  0  0  0  0  0  0  0  0
    9.8713   15.6720   24.3657 C   0  0  0  0  0  0  0  0  0  0  0  0
   11.2700   15.2294   23.9470 C   0  0  0  0  0  0  0  0  0  0  0  0
   11.6221   15.6980   22.5481 C   0  0  0  0  0  0  0  0  0  0  0  0
   10.5916   15.2205   21.6370 N   0  0  0  0  0  0  0  0  0  0  0  0
   10.9878   15.3095   20.3525 C   0  0  0  0  0  0  0  0  0  0  0  0
   11.4719   14.3749   19.5825 N   0  0  0  0  0  0  0  0  0  0  0  0
   11.6063   14.9729   18.3842 C   0  0  0  0  0  0  0  0  0  0  0  0
   11.3907   16.3011   18.5326 C   0  0  0  0  0  0  0  0  0  0  0  0
   10.9398   16.5416   19.7787 O   0  0  0  0  0  0  0  0  0  0  0  0
    9.2822   15.8397   21.8637 C   0  0  0  0  0  0  0  0  0  0  0  0
    8.4866   13.0634   24.3784 N   0  0  0  0  0  0  0  0  0  0  0  0
    9.5392   12.2287   23.6833 C   0  0  0  0  0  0  0  0  0  0  0  0
    9.0655   10.7699   23.7288 C   0  0  0  0  0  0  0  0  0  0  0  0
    7.9365   10.8329   24.6985 C   0  0  0  0  0  0  0  0  0  0  0  0
    7.2052    9.7826   25.2115 C   0  0  0  0  0  0  0  0  0  0  0  0
    6.1367   10.0556   26.0701 C   0  0  0  0  0  0  0  0  0  0  0  0
    5.8232   11.3729   26.4192 C   0  0  0  0  0  0  0  0  0  0  0  0
    6.5736   12.4262   25.9027 C   0  0  0  0  0  0  0  0  0  0  0  0
    7.6087   12.1370   25.0262 C   0  0  0  0  0  0  0  0  0  0  0  0
  1  2  2  0
  2  3  2  0
  4  2  1  6
  4  5  1  0
  5  6  1  0
  6  7  1  0
  7  8  1  0
  8  9  1  0
  9 10  2  0
 10 11  1  0
 11 12  2  0
 12 13  1  0
  8 14  1  0
  2 15  1  0
 15 16  1  0
 16 17  1  0
 17 18  1  0
 18 19  2  0
 19 20  1  0
 20 21  2  0
 21 22  1  0
 22 23  2  0
 14  4  1  0
 23 15  1  0
 13  9  1  0
 23 18  1  0
M  END
>  <ref_pdb>  (162) 
A3587a

>  <subsites>  (162) 
1 - Active Site

>  <HIPPO Compound ID>  (162) 
2648

>  <energy_score>  (162) 
-43.074982

>  <fragmenstein_mode>  (162) 
expansion

>  <scratch_subdir>  (162) 
/opt/xchem-fragalysis-2/maxwin/BulkDock/SCRATCH/512158/C45982-P173

>  <smiles>  (162) 
O=S(=O)([C@H]1CCCN(c2ncco2)C1)N1CCc2ccccc21

>  <alias>  (162) 
C45982-P173

>  <ref_mols>  (162) 
A3623a,A3587a

>  <inspiration_score>  (162) 
None

>  <tags>  (162) 
BulkDock Fragalysis export,fragmenstein_placed,openbind_a71ev2a_c1_scaffolds,openbind_a71ev2a_c1_knitwork_pure

>  <fragmenstein_outcome>  (162) 
acceptable

>  <fragmenstein_error>  (162) 


>  <distance_score>  (162) 
0.819902

>  <inchikey>  (162) 
ISGNTNSLKCLYPY-UHFFFAOYSA-N

>  <name>  (162) 
C45982-P173

>  <HIPPO Pose ID>  (162) 
155452

>  <Energy>  (162) 
-30.873441

>  <exports>  (162) 
['/opt/xchem-fragalysis-2/maxwin/BulkDock/OUTPUTS/openbind_a71ev2a_c1_knitwork_pure_165VWF8.sdf', '/opt/xchem-fragalysis-2/maxwin/BulkDock/OUTPUTS/openbind_a71ev2a_c1_knitwork_pure_1B07PTU.sdf', '/opt/xchem-fragalysis-2/maxwin/BulkDock/OUTPUTS/openbind_a71ev2a_c1_knitwork_pure_1B07UWE.sdf', '/opt/xchem-fragalysis-2/maxwin/openbind-hippo/a71ev2a/openbind_a71ev2a_c1_scaffold_products.sdf', '/opt/xchem-fragalysis-2/maxwin/openbind-hippo/a71ev2a/cycle_01/bulkdock/openbind_a71ev2a_c1_scaffold_products.sdf', '/opt/xchem-fragalysis-2/maxwin/openbind-hippo/a71ev2a/cycle_01/bulkdock/openbind_a71ev2a_c1_scaffolds.sdf']

>  <fragmenstein_runtime>  (162) 
82.103597

$$$$
C45874-P159
     RDKit          3D

 17 18  0  0  0  0  0  0  0  0999 V2000
   11.7159   14.8615   18.3841 C   0  0  0  0  0  0  0  0  0  0  0  0
   10.4106   14.4098   18.6171 O   0  0  0  0  0  0  0  0  0  0  0  0
    9.6958   15.3237   19.4238 C   0  0  0  0  0  0  0  0  0  0  0  0
    9.8642   15.0915   20.8916 C   0  0  0  0  0  0  0  0  0  0  0  0
   11.1007   15.2454   21.3942 N   0  0  0  0  0  0  0  0  0  0  0  0
   11.1970   15.1913   22.7164 C   0  0  0  0  0  0  0  0  0  0  0  0
   10.1127   15.0455   23.5388 C   0  0  0  0  0  0  0  0  0  0  0  0
    8.9000   14.8094   22.9345 C   0  0  0  0  0  0  0  0  0  0  0  0
    7.7485   14.5065   23.6864 N   0  0  0  0  0  0  0  0  0  0  0  0
    7.5629   13.0493   23.8188 C   0  0  0  0  0  0  0  0  0  0  0  0
    8.0058   12.5162   25.1946 C   0  0  2  0  0  0  0  0  0  0  0  0
    9.5104   12.5026   25.4195 C   0  0  0  0  0  0  0  0  0  0  0  0
   10.2174   11.6375   24.4018 C   0  0  0  0  0  0  0  0  0  0  0  0
    9.6736   10.2157   24.4611 C   0  0  0  0  0  0  0  0  0  0  0  0
    8.2223   10.1476   24.4911 N   0  0  0  0  0  0  0  0  0  0  0  0
    7.5509   11.0691   25.3908 C   0  0  0  0  0  0  0  0  0  0  0  0
    8.7485   14.8511   21.6138 N   0  0  0  0  0  0  0  0  0  0  0  0
  1  2  1  0
  2  3  1  0
  3  4  1  0
  4  5  2  0
  5  6  1  0
  6  7  2  0
  7  8  1  0
  8  9  1  0
  9 10  1  0
 11 10  1  6
 11 12  1  0
 12 13  1  0
 13 14  1  0
 14 15  1  0
 15 16  1  0
  8 17  2  0
 17  4  1  0
 16 11  1  0
M  END
>  <ref_pdb>  (163) 
A3223a

>  <subsites>  (163) 
1 - Active Site

>  <HIPPO Compound ID>  (163) 
45999

>  <energy_score>  (163) 
-28.916385

>  <fragmenstein_mode>  (163) 
expansion

>  <scratch_subdir>  (163) 
/opt/xchem-fragalysis-2/maxwin/BulkDock/SCRATCH/512158/C45874-P159

>  <smiles>  (163) 
COCc1nccc(NC[C@@H]2CCCNC2)n1

>  <alias>  (163) 
C45874-P159

>  <ref_mols>  (163) 
A3223a,A1068a

>  <inspiration_score>  (163) 
None

>  <tags>  (163) 
BulkDock Fragalysis export,fragmenstein_placed,openbind_a71ev2a_c1_scaffolds,openbind_a71ev2a_c1_knitwork_pure

>  <fragmenstein_outcome>  (163) 
acceptable

>  <fragmenstein_error>  (163) 


>  <distance_score>  (163) 
0.994369

>  <inchikey>  (163) 
OLVAHZCAPPDKML-UHFFFAOYSA-N

>  <name>  (163) 
C45874-P159

>  <HIPPO Pose ID>  (163) 
155801

>  <Energy>  (163) 
1.511653

>  <exports>  (163) 
['/opt/xchem-fragalysis-2/maxwin/BulkDock/OUTPUTS/openbind_a71ev2a_c1_knitwork_pure_165VWF8.sdf', '/opt/xchem-fragalysis-2/maxwin/BulkDock/OUTPUTS/openbind_a71ev2a_c1_knitwork_pure_1B07PTU.sdf', '/opt/xchem-fragalysis-2/maxwin/BulkDock/OUTPUTS/openbind_a71ev2a_c1_knitwork_pure_1B07UWE.sdf', '/opt/xchem-fragalysis-2/maxwin/openbind-hippo/a71ev2a/openbind_a71ev2a_c1_scaffold_products.sdf', '/opt/xchem-fragalysis-2/maxwin/openbind-hippo/a71ev2a/cycle_01/bulkdock/openbind_a71ev2a_c1_scaffold_products.sdf', '/opt/xchem-fragalysis-2/maxwin/openbind-hippo/a71ev2a/cycle_01/bulkdock/openbind_a71ev2a_c1_scaffolds.sdf']

>  <fragmenstein_runtime>  (163) 
3.558367

$$$$
C3275-P159
     RDKit          3D

 12 13  0  0  0  0  0  0  0  0999 V2000
    9.1924   10.4062   23.8381 C   0  0  0  0  0  0  0  0  0  0  0  0
    9.4991   11.6608   23.3523 C   0  0  0  0  0  0  0  0  0  0  0  0
    8.8339   12.7413   23.8926 C   0  0  0  0  0  0  0  0  0  0  0  0
    9.1436   14.0449   23.5479 N   0  0  0  0  0  0  0  0  0  0  0  0
    8.4481   14.6608   22.4165 C   0  0  0  0  0  0  0  0  0  0  0  0
    9.3328   14.7082   21.1716 C   0  0  0  0  0  0  0  0  0  0  0  0
   10.7117   15.2914   21.4553 C   0  0  0  0  0  0  0  0  0  0  0  0
   11.3770   14.5478   22.6042 C   0  0  0  0  0  0  0  0  0  0  0  0
   10.4875   14.5273   23.8418 C   0  0  0  0  0  0  0  0  0  0  0  0
    7.8881   12.5567   24.8274 N   0  0  0  0  0  0  0  0  0  0  0  0
    7.6595   11.2979   25.2334 C   0  0  0  0  0  0  0  0  0  0  0  0
    8.2797   10.1961   24.7970 N   0  0  0  0  0  0  0  0  0  0  0  0
  1  2  2  0
  2  3  1  0
  3  4  1  0
  4  5  1  0
  5  6  1  0
  6  7  1  0
  7  8  1  0
  8  9  1  0
  3 10  2  0
 10 11  1  0
 11 12  2  0
 12  1  1  0
  9  4  1  0
M  END
>  <ref_pdb>  (164) 
A3223a

>  <subsites>  (164) 
1 - Active Site

>  <HIPPO Compound ID>  (164) 
46630

>  <energy_score>  (164) 
-8.036181

>  <fragmenstein_mode>  (164) 
expansion

>  <scratch_subdir>  (164) 
/opt/xchem-fragalysis-2/maxwin/BulkDock/SCRATCH/512158/C3275-P159

>  <smiles>  (164) 
c1cc(N2CCCCC2)ncn1

>  <alias>  (164) 
C3275-P159

>  <ref_mols>  (164) 
A3223a,A1068a

>  <inspiration_score>  (164) 
None

>  <tags>  (164) 
BulkDock Fragalysis export,fragmenstein_placed,openbind_a71ev2a_c1_scaffolds,openbind_a71ev2a_c1_knitwork_pure

>  <fragmenstein_outcome>  (164) 
acceptable

>  <fragmenstein_error>  (164) 


>  <distance_score>  (164) 
0.943922

>  <inchikey>  (164) 
BWJOVYDSIAZYNE-UHFFFAOYSA-N

>  <name>  (164) 
C3275-P159

>  <HIPPO Pose ID>  (164) 
155848

>  <Energy>  (164) 
-31.992002

>  <exports>  (164) 
['/opt/xchem-fragalysis-2/maxwin/BulkDock/OUTPUTS/openbind_a71ev2a_c1_knitwork_pure_165VWF8.sdf', '/opt/xchem-fragalysis-2/maxwin/BulkDock/OUTPUTS/openbind_a71ev2a_c1_knitwork_pure_1B07PTU.sdf', '/opt/xchem-fragalysis-2/maxwin/BulkDock/OUTPUTS/openbind_a71ev2a_c1_knitwork_pure_1B07UWE.sdf', '/opt/xchem-fragalysis-2/maxwin/openbind-hippo/a71ev2a/openbind_a71ev2a_c1_scaffold_products.sdf', '/opt/xchem-fragalysis-2/maxwin/openbind-hippo/a71ev2a/cycle_01/bulkdock/openbind_a71ev2a_c1_scaffold_products.sdf', '/opt/xchem-fragalysis-2/maxwin/openbind-hippo/a71ev2a/cycle_01/bulkdock/openbind_a71ev2a_c1_scaffolds.sdf']

>  <fragmenstein_runtime>  (164) 
1.219909

$$$$
C46500-P219
     RDKit          3D

 15 16  0  0  0  0  0  0  0  0999 V2000
    8.0167   14.6919   23.5352 Cl  0  0  0  0  0  0  0  0  0  0  0  0
    8.2945   13.1021   24.1352 C   0  0  0  0  0  0  0  0  0  0  0  0
    7.4090   12.5788   25.0686 C   0  0  0  0  0  0  0  0  0  0  0  0
    7.4149   11.2892   25.4723 N   0  0  0  0  0  0  0  0  0  0  0  0
    8.3040   10.4889   24.8542 C   0  0  0  0  0  0  0  0  0  0  0  0
    9.2568   10.9215   23.9466 C   0  0  0  0  0  0  0  0  0  0  0  0
    9.2877   12.2693   23.5938 C   0  0  0  0  0  0  0  0  0  0  0  0
   10.2846   12.7148   22.7165 N   0  0  0  0  0  0  0  0  0  0  0  0
   11.2252   13.7112   23.2298 C   0  0  0  0  0  0  0  0  0  0  0  0
   12.0370   14.3323   22.0811 C   0  0  1  0  0  0  0  0  0  0  0  0
   11.1441   14.8929   20.9656 C   0  0  0  0  0  0  0  0  0  0  0  0
   11.9901   15.6045   19.9145 C   0  0  0  0  0  0  0  0  0  0  0  0
   12.8448   16.6935   20.5540 C   0  0  0  0  0  0  0  0  0  0  0  0
   13.7003   16.1602   21.6147 N   0  0  0  0  0  0  0  0  0  0  0  0
   12.9221   15.4598   22.6341 C   0  0  0  0  0  0  0  0  0  0  0  0
  1  2  1  0
  2  3  2  0
  3  4  1  0
  4  5  2  0
  5  6  1  0
  6  7  2  0
  7  8  1  0
  8  9  1  0
 10  9  1  1
 10 11  1  0
 11 12  1  0
 12 13  1  0
 13 14  1  0
 14 15  1  0
  7  2  1  0
 15 10  1  0
M  END
>  <ref_pdb>  (165) 
A3564a

>  <subsites>  (165) 
1 - Active Site

>  <HIPPO Compound ID>  (165) 
49327

>  <energy_score>  (165) 
-16.695709

>  <fragmenstein_mode>  (165) 
expansion

>  <scratch_subdir>  (165) 
/opt/xchem-fragalysis-2/maxwin/BulkDock/SCRATCH/512159/C46500-P219

>  <smiles>  (165) 
Clc1cnccc1NC[C@H]1CCCNC1

>  <alias>  (165) 
C46500-P219

>  <ref_mols>  (165) 
A4943b,A3986b,A3564a,A4708a

>  <inspiration_score>  (165) 
None

>  <tags>  (165) 
BulkDock Fragalysis export,fragmenstein_placed,openbind_a71ev2a_c1_scaffolds,openbind_a71ev2a_c1_knitwork_pure

>  <fragmenstein_outcome>  (165) 
acceptable

>  <fragmenstein_error>  (165) 


>  <distance_score>  (165) 
0.928022

>  <inchikey>  (165) 
BJSRYGJAQHXCPG-UHFFFAOYSA-N

>  <name>  (165) 
C46500-P219

>  <HIPPO Pose ID>  (165) 
159003

>  <Energy>  (165) 
49.567175

>  <exports>  (165) 
['/opt/xchem-fragalysis-2/maxwin/BulkDock/OUTPUTS/openbind_a71ev2a_c1_knitwork_pure_165VWF8.sdf', '/opt/xchem-fragalysis-2/maxwin/BulkDock/OUTPUTS/openbind_a71ev2a_c1_knitwork_pure_1B07PTU.sdf', '/opt/xchem-fragalysis-2/maxwin/BulkDock/OUTPUTS/openbind_a71ev2a_c1_knitwork_pure_1B07UWE.sdf', '/opt/xchem-fragalysis-2/maxwin/openbind-hippo/a71ev2a/openbind_a71ev2a_c1_scaffold_products.sdf', '/opt/xchem-fragalysis-2/maxwin/openbind-hippo/a71ev2a/cycle_01/bulkdock/openbind_a71ev2a_c1_scaffold_products.sdf', '/opt/xchem-fragalysis-2/maxwin/openbind-hippo/a71ev2a/cycle_01/bulkdock/openbind_a71ev2a_c1_scaffolds.sdf']

>  <fragmenstein_runtime>  (165) 
1.201602

$$$$
C46501-P219
     RDKit          3D

 16 17  0  0  0  0  0  0  0  0999 V2000
   10.2196    9.4157   22.9490 N   0  0  0  0  0  0  0  0  0  0  0  0
    9.6206   10.2832   23.4255 C   0  0  0  0  0  0  0  0  0  0  0  0
    8.8265   11.1975   24.1702 C   0  0  0  0  0  0  0  0  0  0  0  0
    8.0011   10.6458   25.1417 C   0  0  0  0  0  0  0  0  0  0  0  0
    7.1905   11.3472   25.9589 N   0  0  0  0  0  0  0  0  0  0  0  0
    7.1562   12.6723   25.7451 C   0  0  0  0  0  0  0  0  0  0  0  0
    7.9119   13.3183   24.7795 C   0  0  0  0  0  0  0  0  0  0  0  0
    8.7673   12.5748   23.9578 C   0  0  0  0  0  0  0  0  0  0  0  0
    9.4891   13.2548   22.9696 N   0  0  0  0  0  0  0  0  0  0  0  0
   10.9448   13.3568   23.1323 C   0  0  0  0  0  0  0  0  0  0  0  0
   11.4287   14.6824   22.5122 C   0  0  2  0  0  0  0  0  0  0  0  0
   11.2761   14.7008   20.9844 C   0  0  0  0  0  0  0  0  0  0  0  0
   11.8119   16.0090   20.4107 C   0  0  0  0  0  0  0  0  0  0  0  0
   13.2438   16.2651   20.8682 C   0  0  0  0  0  0  0  0  0  0  0  0
   13.3786   16.2133   22.3279 N   0  0  0  0  0  0  0  0  0  0  0  0
   12.8913   14.9424   22.8661 C   0  0  0  0  0  0  0  0  0  0  0  0
  1  2  3  0
  2  3  1  0
  3  4  2  0
  4  5  1  0
  5  6  2  0
  6  7  1  0
  7  8  2  0
  8  9  1  0
  9 10  1  0
 11 10  1  6
 11 12  1  0
 12 13  1  0
 13 14  1  0
 14 15  1  0
 15 16  1  0
  8  3  1  0
 16 11  1  0
M  END
>  <ref_pdb>  (166) 
A3564a

>  <subsites>  (166) 
1 - Active Site

>  <HIPPO Compound ID>  (166) 
67150

>  <energy_score>  (166) 
-34.903344

>  <fragmenstein_mode>  (166) 
expansion

>  <scratch_subdir>  (166) 
/opt/xchem-fragalysis-2/maxwin/BulkDock/SCRATCH/512159/C46501-P219

>  <smiles>  (166) 
N#Cc1cnccc1NC[C@@H]1CCCNC1

>  <alias>  (166) 
C46501-P219

>  <ref_mols>  (166) 
A4943b,A3986b,A3564a,A4708a

>  <inspiration_score>  (166) 
None

>  <tags>  (166) 
BulkDock Fragalysis export,fragmenstein_placed,openbind_a71ev2a_c1_scaffolds,openbind_a71ev2a_c1_knitwork_pure

>  <fragmenstein_outcome>  (166) 
acceptable

>  <fragmenstein_error>  (166) 


>  <distance_score>  (166) 
0.908755

>  <inchikey>  (166) 
FWAPTJLEEQMNPP-UHFFFAOYSA-N

>  <name>  (166) 
C46501-P219

>  <HIPPO Pose ID>  (166) 
159005

>  <Energy>  (166) 
43.058851

>  <exports>  (166) 
['/opt/xchem-fragalysis-2/maxwin/BulkDock/OUTPUTS/openbind_a71ev2a_c1_knitwork_pure_165VWF8.sdf', '/opt/xchem-fragalysis-2/maxwin/BulkDock/OUTPUTS/openbind_a71ev2a_c1_knitwork_pure_1B07PTU.sdf', '/opt/xchem-fragalysis-2/maxwin/BulkDock/OUTPUTS/openbind_a71ev2a_c1_knitwork_pure_1B07UWE.sdf', '/opt/xchem-fragalysis-2/maxwin/openbind-hippo/a71ev2a/openbind_a71ev2a_c1_scaffold_products.sdf', '/opt/xchem-fragalysis-2/maxwin/openbind-hippo/a71ev2a/cycle_01/bulkdock/openbind_a71ev2a_c1_scaffold_products.sdf', '/opt/xchem-fragalysis-2/maxwin/openbind-hippo/a71ev2a/cycle_01/bulkdock/openbind_a71ev2a_c1_scaffolds.sdf']

>  <fragmenstein_runtime>  (166) 
1.099439

$$$$
C13204-P195
     RDKit          3D

 13 13  0  0  0  0  0  0  0  0999 V2000
   11.9957   14.8868   23.3082 C   0  0  0  0  0  0  0  0  0  0  0  0
   10.6368   15.4103   23.7387 C   0  0  0  0  0  0  0  0  0  0  0  0
    9.5355   14.9861   22.7808 C   0  0  0  0  0  0  0  0  0  0  0  0
    8.8114   13.3963   23.1672 S   0  0  0  0  0  0  0  0  0  0  0  0
    7.7284   13.1605   22.2342 O   0  0  0  0  0  0  0  0  0  0  0  0
    9.8323   12.4157   23.4466 O   0  0  0  0  0  0  0  0  0  0  0  0
    7.9805   13.7231   24.5810 N   0  0  0  0  0  0  0  0  0  0  0  0
    7.7216   12.5994   25.5150 C   0  0  1  0  0  0  0  0  0  0  0  0
    6.5273   13.0287   26.3786 C   0  0  0  0  0  0  0  0  0  0  0  0
    6.0439   11.9371   27.3171 C   0  0  0  0  0  0  0  0  0  0  0  0
    5.8834   10.6071   26.5994 C   0  0  0  0  0  0  0  0  0  0  0  0
    7.0803   10.2139   25.8739 N   0  0  0  0  0  0  0  0  0  0  0  0
    7.4826   11.2192   24.8872 C   0  0  0  0  0  0  0  0  0  0  0  0
  1  2  1  0
  2  3  1  0
  3  4  1  0
  4  5  2  0
  4  6  2  0
  4  7  1  0
  8  7  1  6
  8  9  1  0
  9 10  1  0
 10 11  1  0
 11 12  1  0
 12 13  1  0
 13  8  1  0
M  END
>  <ref_pdb>  (167) 
A3612a

>  <subsites>  (167) 
1 - Active Site

>  <HIPPO Compound ID>  (167) 
63643

>  <energy_score>  (167) 
-46.256071

>  <fragmenstein_mode>  (167) 
expansion

>  <scratch_subdir>  (167) 
/opt/xchem-fragalysis-2/maxwin/BulkDock/SCRATCH/512159/C13204-P195

>  <smiles>  (167) 
CCCS(=O)(=O)N[C@H]1CCCNC1

>  <alias>  (167) 
C13204-P195

>  <ref_mols>  (167) 
A3612a,A0719a

>  <inspiration_score>  (167) 
None

>  <tags>  (167) 
BulkDock Fragalysis export,fragmenstein_placed,openbind_a71ev2a_c1_scaffolds,openbind_a71ev2a_c1_knitwork_pure

>  <fragmenstein_outcome>  (167) 
acceptable

>  <fragmenstein_error>  (167) 


>  <distance_score>  (167) 
0.888437

>  <inchikey>  (167) 
LAVJEXPQSPEZFW-UHFFFAOYSA-N

>  <name>  (167) 
C13204-P195

>  <HIPPO Pose ID>  (167) 
161390

>  <Energy>  (167) 
-46.049736

>  <exports>  (167) 
['/opt/xchem-fragalysis-2/maxwin/BulkDock/OUTPUTS/openbind_a71ev2a_c1_knitwork_pure_165VWF8.sdf', '/opt/xchem-fragalysis-2/maxwin/BulkDock/OUTPUTS/openbind_a71ev2a_c1_knitwork_pure_1B07PTU.sdf', '/opt/xchem-fragalysis-2/maxwin/BulkDock/OUTPUTS/openbind_a71ev2a_c1_knitwork_pure_1B07UWE.sdf', '/opt/xchem-fragalysis-2/maxwin/openbind-hippo/a71ev2a/openbind_a71ev2a_c1_scaffold_products.sdf', '/opt/xchem-fragalysis-2/maxwin/openbind-hippo/a71ev2a/cycle_01/bulkdock/openbind_a71ev2a_c1_scaffold_products.sdf', '/opt/xchem-fragalysis-2/maxwin/openbind-hippo/a71ev2a/cycle_01/bulkdock/openbind_a71ev2a_c1_scaffolds.sdf']

>  <fragmenstein_runtime>  (167) 
1.97999

$$$$
C36518-P207
     RDKit          3D

 12 12  0  0  0  0  0  0  0  0999 V2000
    6.2930   13.6767   25.7764 O   0  0  0  0  0  0  0  0  0  0  0  0
    7.2434   13.3081   25.2142 C   0  0  0  0  0  0  0  0  0  0  0  0
    8.4126   14.2320   24.9094 C   0  0  0  0  0  0  0  0  0  0  0  0
    8.4998   14.5788   23.4224 C   0  0  0  0  0  0  0  0  0  0  0  0
    9.3577   15.7415   23.1727 N   0  0  0  0  0  0  0  0  0  0  0  0
   10.7473   15.6133   23.6171 C   0  0  0  0  0  0  0  0  0  0  0  0
   11.6100   14.7065   22.7444 C   0  0  0  0  0  0  0  0  0  0  0  0
   11.5754   15.1609   21.2904 C   0  0  0  0  0  0  0  0  0  0  0  0
   10.1348   15.2987   20.8109 C   0  0  0  0  0  0  0  0  0  0  0  0
    9.3119   16.1739   21.7596 C   0  0  0  0  0  0  0  0  0  0  0  0
    7.6241   11.9044   24.7133 N   0  0  0  0  0  0  0  0  0  0  0  0
    6.9027   10.7235   24.7144 O   0  0  0  0  0  0  0  0  0  0  0  0
  1  2  2  0
  2  3  1  0
  3  4  1  0
  4  5  1  0
  5  6  1  0
  6  7  1  0
  7  8  1  0
  8  9  1  0
  9 10  1  0
  2 11  1  0
 11 12  1  0
 10  5  1  0
M  END
>  <ref_pdb>  (168) 
A3706a

>  <subsites>  (168) 
1 - Active Site

>  <HIPPO Compound ID>  (168) 
49166

>  <energy_score>  (168) 
-31.387952

>  <fragmenstein_mode>  (168) 
expansion

>  <scratch_subdir>  (168) 
/opt/xchem-fragalysis-2/maxwin/BulkDock/SCRATCH/512159/C36518-P207

>  <smiles>  (168) 
O=C(CCN1CCCCC1)NO

>  <alias>  (168) 
C36518-P207

>  <ref_mols>  (168) 
A1080a,A3706a

>  <inspiration_score>  (168) 
None

>  <tags>  (168) 
BulkDock Fragalysis export,fragmenstein_placed,openbind_a71ev2a_c1_scaffolds,openbind_a71ev2a_c1_knitwork_pure

>  <fragmenstein_outcome>  (168) 
acceptable

>  <fragmenstein_error>  (168) 


>  <distance_score>  (168) 
0.979072

>  <inchikey>  (168) 
QCQBHQXHEXHOGW-UHFFFAOYSA-N

>  <name>  (168) 
C36518-P207

>  <HIPPO Pose ID>  (168) 
161977

>  <Energy>  (168) 
48.935304

>  <exports>  (168) 
['/opt/xchem-fragalysis-2/maxwin/BulkDock/OUTPUTS/openbind_a71ev2a_c1_knitwork_pure_165VWF8.sdf', '/opt/xchem-fragalysis-2/maxwin/BulkDock/OUTPUTS/openbind_a71ev2a_c1_knitwork_pure_1B07PTU.sdf', '/opt/xchem-fragalysis-2/maxwin/BulkDock/OUTPUTS/openbind_a71ev2a_c1_knitwork_pure_1B07UWE.sdf', '/opt/xchem-fragalysis-2/maxwin/openbind-hippo/a71ev2a/openbind_a71ev2a_c1_scaffold_products.sdf', '/opt/xchem-fragalysis-2/maxwin/openbind-hippo/a71ev2a/cycle_01/bulkdock/openbind_a71ev2a_c1_scaffold_products.sdf', '/opt/xchem-fragalysis-2/maxwin/openbind-hippo/a71ev2a/cycle_01/bulkdock/openbind_a71ev2a_c1_scaffolds.sdf']

>  <fragmenstein_runtime>  (168) 
1.91652

$$$$
C63643-P219
     RDKit          3D

 22 23  0  0  0  0  0  0  0  0999 V2000
   12.3014   12.5800   24.2684 O   0  0  0  0  0  0  0  0  0  0  0  0
   11.6705   13.3667   23.7410 C   0  0  0  0  0  0  0  0  0  0  0  0
   12.0884   14.6961   23.0666 N   0  0  0  0  0  0  0  0  0  0  0  0
   13.3859   15.2508   22.8396 C   0  0  0  0  0  0  0  0  0  0  0  0
   13.3983   16.6948   22.3823 C   0  0  0  0  0  0  0  0  0  0  0  0
   13.4001   16.8285   20.8655 C   0  0  0  0  0  0  0  0  0  0  0  0
   12.3548   16.0898   20.1956 N   0  0  0  0  0  0  0  0  0  0  0  0
   12.4961   15.4318   19.0148 C   0  0  0  0  0  0  0  0  0  0  0  0
   11.2693   14.8935   18.7372 C   0  0  0  0  0  0  0  0  0  0  0  0
   10.4503   15.2901   19.8080 C   0  0  0  0  0  0  0  0  0  0  0  0
   11.1095   16.0038   20.7243 N   0  0  0  0  0  0  0  0  0  0  0  0
   10.1291   13.4719   23.5767 N   0  0  0  0  0  0  0  0  0  0  0  0
    9.1177   12.6910   24.1035 C   0  0  0  0  0  0  0  0  0  0  0  0
    8.1072   13.4467   24.5839 N   0  0  0  0  0  0  0  0  0  0  0  0
    7.1432   12.8521   25.3162 C   0  0  0  0  0  0  0  0  0  0  0  0
    7.1129   11.5100   25.5980 C   0  0  0  0  0  0  0  0  0  0  0  0
    8.0872   10.7324   25.0062 C   0  0  0  0  0  0  0  0  0  0  0  0
    9.1086   11.3108   24.2216 C   0  0  0  0  0  0  0  0  0  0  0  0
    9.9534   10.3797   23.4091 C   0  0  0  0  0  0  0  0  0  0  0  0
    9.6625    9.0870   23.7175 F   0  0  0  0  0  0  0  0  0  0  0  0
    9.7201   10.4933   22.0854 F   0  0  0  0  0  0  0  0  0  0  0  0
   11.2781   10.4950   23.5574 F   0  0  0  0  0  0  0  0  0  0  0  0
  1  2  2  0
  2  3  1  0
  3  4  1  0
  4  5  1  0
  5  6  1  0
  6  7  1  0
  7  8  1  0
  8  9  2  0
  9 10  1  0
 10 11  2  0
  2 12  1  0
 12 13  1  0
 13 14  2  0
 14 15  1  0
 15 16  2  0
 16 17  1  0
 17 18  2  0
 18 19  1  0
 19 20  1  0
 19 21  1  0
 19 22  1  0
 11  7  1  0
 18 13  1  0
M  END
>  <ref_pdb>  (169) 
A3564a

>  <subsites>  (169) 
1 - Active Site

>  <HIPPO Compound ID>  (169) 
65117

>  <energy_score>  (169) 
-7.44198

>  <fragmenstein_mode>  (169) 
expansion

>  <scratch_subdir>  (169) 
/opt/xchem-fragalysis-2/maxwin/BulkDock/SCRATCH/512159/C63643-P219

>  <smiles>  (169) 
O=C(NCCCn1cccn1)Nc1ncccc1C(F)(F)F

>  <alias>  (169) 
C63643-P219

>  <ref_mols>  (169) 
A3564a,A0556a

>  <inspiration_score>  (169) 
None

>  <tags>  (169) 
BulkDock Fragalysis export,fragmenstein_placed,openbind_a71ev2a_c1_scaffolds,openbind_a71ev2a_c1_knitwork_pure

>  <fragmenstein_outcome>  (169) 
acceptable

>  <fragmenstein_error>  (169) 


>  <distance_score>  (169) 
0.869459

>  <inchikey>  (169) 
WWDQZLGXDWUCRA-UHFFFAOYSA-N

>  <name>  (169) 
C63643-P219

>  <HIPPO Pose ID>  (169) 
163273

>  <Energy>  (169) 
-40.212415

>  <exports>  (169) 
['/opt/xchem-fragalysis-2/maxwin/BulkDock/OUTPUTS/openbind_a71ev2a_c1_knitwork_pure_165VWF8.sdf', '/opt/xchem-fragalysis-2/maxwin/BulkDock/OUTPUTS/openbind_a71ev2a_c1_knitwork_pure_1B07PTU.sdf', '/opt/xchem-fragalysis-2/maxwin/BulkDock/OUTPUTS/openbind_a71ev2a_c1_knitwork_pure_1B07UWE.sdf', '/opt/xchem-fragalysis-2/maxwin/openbind-hippo/a71ev2a/openbind_a71ev2a_c1_scaffold_products.sdf', '/opt/xchem-fragalysis-2/maxwin/openbind-hippo/a71ev2a/cycle_01/bulkdock/openbind_a71ev2a_c1_scaffold_products.sdf', '/opt/xchem-fragalysis-2/maxwin/openbind-hippo/a71ev2a/cycle_01/bulkdock/openbind_a71ev2a_c1_scaffolds.sdf']

>  <fragmenstein_runtime>  (169) 
4.027519

$$$$
C102812-P76
     RDKit          3D

 25 27  0  0  0  0  0  0  0  0999 V2000
   14.2060   16.5764    3.9841 C   0  0  0  0  0  0  0  0  0  0  0  0
   13.7254   16.2773    2.5661 C   0  0  1  0  0  0  0  0  0  0  0  0
   14.2490   14.9199    2.0300 C   0  0  0  0  0  0  0  0  0  0  0  0
   15.6912   14.8084    2.0624 N   0  0  0  0  0  0  0  0  0  0  0  0
   16.6346   14.3241    3.1849 C   0  0  0  0  0  0  0  0  0  0  0  0
   16.3929   13.8672    4.2298 O   0  0  0  0  0  0  0  0  0  0  0  0
   18.0506   14.6163    2.8146 C   0  0  0  0  0  0  0  0  0  0  0  0
   19.0556   13.7292    2.9713 N   0  0  0  0  0  0  0  0  0  0  0  0
   20.1713   14.4230    2.6420 N   0  0  0  0  0  0  0  0  0  0  0  0
   21.4754   13.8155    2.8013 C   0  0  0  0  0  0  0  0  0  0  0  0
   19.9243   15.7074    2.2270 C   0  0  0  0  0  0  0  0  0  0  0  0
   20.7716   16.7363    1.7923 C   0  0  0  0  0  0  0  0  0  0  0  0
   20.1900   17.9681    1.4846 C   0  0  0  0  0  0  0  0  0  0  0  0
   18.8200   18.1683    1.6196 C   0  0  0  0  0  0  0  0  0  0  0  0
   17.9892   17.1345    2.0596 C   0  0  0  0  0  0  0  0  0  0  0  0
   18.5486   15.8731    2.3484 C   0  0  0  0  0  0  0  0  0  0  0  0
   12.2713   16.3629    2.5301 N   0  0  0  0  0  0  0  0  0  0  0  0
   11.2726   16.0620    1.3812 C   0  0  0  0  0  0  0  0  0  0  0  0
   11.4666   15.7737    0.2658 O   0  0  0  0  0  0  0  0  0  0  0  0
    9.8438   16.1410    1.9600 C   0  0  0  0  0  0  0  0  0  0  0  0
    9.2767   14.7652    2.0663 C   0  0  0  0  0  0  0  0  0  0  0  0
    8.5298   14.1222    3.0316 C   0  0  0  0  0  0  0  0  0  0  0  0
    8.3667   12.8094    2.5460 C   0  0  0  0  0  0  0  0  0  0  0  0
    8.9378   12.6406    1.3527 N   0  0  0  0  0  0  0  0  0  0  0  0
    9.4456   13.8437    1.0626 N   0  0  0  0  0  0  0  0  0  0  0  0
  2  1  1  1
  2  3  1  0
  3  4  1  0
  4  5  1  0
  5  6  2  0
  5  7  1  0
  7  8  2  0
  8  9  1  0
  9 10  1  0
  9 11  1  0
 11 12  2  0
 12 13  1  0
 13 14  2  0
 14 15  1  0
 15 16  2  0
  2 17  1  0
 17 18  1  0
 18 19  2  0
 18 20  1  0
 20 21  1  0
 21 22  2  0
 22 23  1  0
 23 24  2  0
 24 25  1  0
 16  7  1  0
 25 21  1  0
 16 11  1  0
M  END
>  <ref_pdb>  (170) 
A0717a

>  <subsites>  (170) 
3 - A0541/A/147/1,6 - A0486/A/147/1

>  <HIPPO Compound ID>  (170) 
46587

>  <energy_score>  (170) 
-18.737315

>  <fragmenstein_mode>  (170) 
expansion

>  <scratch_subdir>  (170) 
/opt/xchem-fragalysis-2/maxwin/BulkDock/SCRATCH/512159/C102812-P76

>  <smiles>  (170) 
C[C@@H](CNC(=O)c1nn(C)c2ccccc12)NC(=O)Cc1ccn[nH]1

>  <alias>  (170) 
C102812-P76

>  <ref_mols>  (170) 
A0486a,A0717a

>  <inspiration_score>  (170) 
None

>  <tags>  (170) 
BulkDock Fragalysis export,fragmenstein_placed,openbind_a71ev2a_c1_scaffolds,openbind_a71ev2a_c1_knitwork_pure

>  <fragmenstein_outcome>  (170) 
acceptable

>  <fragmenstein_error>  (170) 


>  <distance_score>  (170) 
0.930854

>  <inchikey>  (170) 
XILXUAMRBXUOIG-UHFFFAOYSA-N

>  <name>  (170) 
C102812-P76

>  <HIPPO Pose ID>  (170) 
165082

>  <Energy>  (170) 
108.485434

>  <exports>  (170) 
['/opt/xchem-fragalysis-2/maxwin/BulkDock/OUTPUTS/openbind_a71ev2a_c1_knitwork_pure_165VWF8.sdf', '/opt/xchem-fragalysis-2/maxwin/BulkDock/OUTPUTS/openbind_a71ev2a_c1_knitwork_pure_1B07PTU.sdf', '/opt/xchem-fragalysis-2/maxwin/BulkDock/OUTPUTS/openbind_a71ev2a_c1_knitwork_pure_1B07UWE.sdf', '/opt/xchem-fragalysis-2/maxwin/openbind-hippo/a71ev2a/openbind_a71ev2a_c1_scaffold_products.sdf', '/opt/xchem-fragalysis-2/maxwin/openbind-hippo/a71ev2a/cycle_01/bulkdock/openbind_a71ev2a_c1_scaffold_products.sdf', '/opt/xchem-fragalysis-2/maxwin/openbind-hippo/a71ev2a/cycle_01/bulkdock/openbind_a71ev2a_c1_scaffolds.sdf']

>  <fragmenstein_runtime>  (170) 
1.930403

$$$$
C40513-P76
     RDKit          3D

 25 27  0  0  0  0  0  0  0  0999 V2000
   17.3399   18.7137    1.8638 C   0  0  0  0  0  0  0  0  0  0  0  0
   18.1893   17.4864    2.0465 C   0  0  0  0  0  0  0  0  0  0  0  0
   19.5665   17.5519    1.7708 C   0  0  0  0  0  0  0  0  0  0  0  0
   20.4134   16.4471    1.9446 C   0  0  0  0  0  0  0  0  0  0  0  0
   19.8301   15.2596    2.3940 C   0  0  0  0  0  0  0  0  0  0  0  0
   20.3622   14.0280    2.6844 N   0  0  0  0  0  0  0  0  0  0  0  0
   19.4486   13.1187    3.0822 N   0  0  0  0  0  0  0  0  0  0  0  0
   18.3039   13.8043    3.0801 C   0  0  0  0  0  0  0  0  0  0  0  0
   18.4706   15.1434    2.6619 C   0  0  0  0  0  0  0  0  0  0  0  0
   17.6357   16.2631    2.4817 C   0  0  0  0  0  0  0  0  0  0  0  0
   16.1946   16.0923    2.7927 C   0  0  0  0  0  0  0  0  0  0  0  0
   15.8777   15.8502    3.8864 O   0  0  0  0  0  0  0  0  0  0  0  0
   15.3550   16.1809    1.5085 N   0  0  0  0  0  0  0  0  0  0  0  0
   13.9278   16.0831    1.3121 C   0  0  0  0  0  0  0  0  0  0  0  0
   13.1725   17.3887    1.5996 C   0  0  2  0  0  0  0  0  0  0  0  0
   13.0533   17.6607    3.1020 C   0  0  0  0  0  0  0  0  0  0  0  0
   11.7851   17.3770    0.9322 C   0  0  0  0  0  0  0  0  0  0  0  0
   10.9762   16.2456    1.3006 N   0  0  0  0  0  0  0  0  0  0  0  0
    9.7781   16.1439    2.2591 C   0  0  0  0  0  0  0  0  0  0  0  0
    9.3030   16.9426    2.9615 O   0  0  0  0  0  0  0  0  0  0  0  0
    9.2646   14.7547    2.1951 C   0  0  0  0  0  0  0  0  0  0  0  0
    8.2480   14.1649    2.9901 C   0  0  0  0  0  0  0  0  0  0  0  0
    8.1788   12.8563    2.5800 C   0  0  0  0  0  0  0  0  0  0  0  0
    9.1120   12.7190    1.5992 N   0  0  0  0  0  0  0  0  0  0  0  0
    9.7868   13.8535    1.3327 N   0  0  0  0  0  0  0  0  0  0  0  0
  1  2  1  0
  2  3  2  0
  3  4  1  0
  4  5  2  0
  5  6  1  0
  6  7  1  0
  7  8  2  0
  8  9  1  0
  9 10  2  0
 10 11  1  0
 11 12  2  0
 11 13  1  0
 13 14  1  0
 14 15  1  0
 15 16  1  1
 15 17  1  0
 17 18  1  0
 18 19  1  0
 19 20  2  0
 19 21  1  0
 21 22  1  0
 22 23  2  0
 23 24  1  0
 24 25  1  0
 10  2  1  0
 25 21  2  0
  9  5  1  0
M  END
>  <ref_pdb>  (171) 
A0717a

>  <subsites>  (171) 
3 - A0541/A/147/1,6 - A0486/A/147/1

>  <HIPPO Compound ID>  (171) 
13655

>  <energy_score>  (171) 
-15.717695

>  <fragmenstein_mode>  (171) 
expansion

>  <scratch_subdir>  (171) 
/opt/xchem-fragalysis-2/maxwin/BulkDock/SCRATCH/512159/C40513-P76

>  <smiles>  (171) 
Cc1ccc2[nH]ncc2c1C(=O)NC[C@H](C)CNC(=O)c1cc[nH]n1

>  <alias>  (171) 
C40513-P76

>  <ref_mols>  (171) 
A0486a,A0717a

>  <inspiration_score>  (171) 
None

>  <tags>  (171) 
BulkDock Fragalysis export,fragmenstein_placed,openbind_a71ev2a_c1_scaffolds,openbind_a71ev2a_c1_knitwork_pure

>  <fragmenstein_outcome>  (171) 
acceptable

>  <fragmenstein_error>  (171) 


>  <distance_score>  (171) 
0.855036

>  <inchikey>  (171) 
CUEVYSRYKCNYRY-UHFFFAOYSA-N

>  <name>  (171) 
C40513-P76

>  <HIPPO Pose ID>  (171) 
165204

>  <Energy>  (171) 
75.84935

>  <exports>  (171) 
['/opt/xchem-fragalysis-2/maxwin/BulkDock/OUTPUTS/openbind_a71ev2a_c1_knitwork_pure_165VWF8.sdf', '/opt/xchem-fragalysis-2/maxwin/BulkDock/OUTPUTS/openbind_a71ev2a_c1_knitwork_pure_1B07PTU.sdf', '/opt/xchem-fragalysis-2/maxwin/BulkDock/OUTPUTS/openbind_a71ev2a_c1_knitwork_pure_1B07UWE.sdf', '/opt/xchem-fragalysis-2/maxwin/openbind-hippo/a71ev2a/openbind_a71ev2a_c1_scaffold_products.sdf', '/opt/xchem-fragalysis-2/maxwin/openbind-hippo/a71ev2a/cycle_01/bulkdock/openbind_a71ev2a_c1_scaffold_products.sdf', '/opt/xchem-fragalysis-2/maxwin/openbind-hippo/a71ev2a/cycle_01/bulkdock/openbind_a71ev2a_c1_scaffolds.sdf']

>  <fragmenstein_runtime>  (171) 
2.589516

$$$$
C40525-P76
     RDKit          3D

 24 26  0  0  0  0  0  0  0  0999 V2000
   13.4983   18.8220    1.5055 C   0  0  0  0  0  0  0  0  0  0  0  0
   13.8092   17.4623    2.1235 C   0  0  2  0  0  0  0  0  0  0  0  0
   13.2909   17.3132    3.5619 C   0  0  0  0  0  0  0  0  0  0  0  0
   11.7916   17.5466    3.7458 C   0  0  0  0  0  0  0  0  0  0  0  0
   10.9531   16.5501    3.1283 N   0  0  0  0  0  0  0  0  0  0  0  0
    9.4794   16.1777    3.3918 C   0  0  0  0  0  0  0  0  0  0  0  0
    8.6900   16.6692    4.0952 O   0  0  0  0  0  0  0  0  0  0  0  0
    9.1743   14.9330    2.6451 C   0  0  0  0  0  0  0  0  0  0  0  0
    8.0538   14.0806    2.8260 C   0  0  0  0  0  0  0  0  0  0  0  0
    8.2653   13.0160    1.9858 C   0  0  0  0  0  0  0  0  0  0  0  0
    9.4387   13.2706    1.3458 N   0  0  0  0  0  0  0  0  0  0  0  0
   10.0346   14.4147    1.7390 N   0  0  0  0  0  0  0  0  0  0  0  0
   15.2468   17.2308    2.0816 N   0  0  0  0  0  0  0  0  0  0  0  0
   16.0473   15.9169    1.9692 C   0  0  0  0  0  0  0  0  0  0  0  0
   15.6818   14.8206    1.8153 O   0  0  0  0  0  0  0  0  0  0  0  0
   17.5395   16.1426    2.0002 C   0  0  0  0  0  0  0  0  0  0  0  0
   18.1607   17.3268    1.5502 C   0  0  0  0  0  0  0  0  0  0  0  0
   19.5527   17.4768    1.5760 C   0  0  0  0  0  0  0  0  0  0  0  0
   20.3857   16.4488    2.0224 C   0  0  0  0  0  0  0  0  0  0  0  0
   19.7669   15.2631    2.4252 C   0  0  0  0  0  0  0  0  0  0  0  0
   20.2923   14.0745    2.8714 N   0  0  0  0  0  0  0  0  0  0  0  0
   19.3623   13.1529    3.1839 N   0  0  0  0  0  0  0  0  0  0  0  0
   18.2108   13.7634    2.8986 C   0  0  0  0  0  0  0  0  0  0  0  0
   18.3835   15.0883    2.4284 C   0  0  0  0  0  0  0  0  0  0  0  0
  2  1  1  1
  2  3  1  0
  3  4  1  0
  4  5  1  0
  5  6  1  0
  6  7  2  0
  6  8  1  0
  8  9  1  0
  9 10  2  0
 10 11  1  0
 11 12  1  0
  2 13  1  0
 13 14  1  0
 14 15  2  0
 14 16  1  0
 16 17  2  0
 17 18  1  0
 18 19  2  0
 19 20  1  0
 20 21  1  0
 21 22  1  0
 22 23  2  0
 23 24  1  0
 12  8  2  0
 24 16  1  0
 24 20  2  0
M  END
>  <ref_pdb>  (172) 
A0717a

>  <subsites>  (172) 
3 - A0541/A/147/1,6 - A0486/A/147/1

>  <HIPPO Compound ID>  (172) 
56901

>  <energy_score>  (172) 
-17.821986

>  <fragmenstein_mode>  (172) 
expansion

>  <scratch_subdir>  (172) 
/opt/xchem-fragalysis-2/maxwin/BulkDock/SCRATCH/512159/C40525-P76

>  <smiles>  (172) 
C[C@H](CCNC(=O)c1cc[nH]n1)NC(=O)c1cccc2[nH]ncc12

>  <alias>  (172) 
C40525-P76

>  <ref_mols>  (172) 
A0486a,A0717a

>  <inspiration_score>  (172) 
None

>  <tags>  (172) 
BulkDock Fragalysis export,fragmenstein_placed,openbind_a71ev2a_c1_scaffolds,openbind_a71ev2a_c1_knitwork_pure

>  <fragmenstein_outcome>  (172) 
acceptable

>  <fragmenstein_error>  (172) 


>  <distance_score>  (172) 
0.769283

>  <inchikey>  (172) 
KULRAFWNQJXNOH-UHFFFAOYSA-N

>  <name>  (172) 
C40525-P76

>  <HIPPO Pose ID>  (172) 
165210

>  <Energy>  (172) 
75.177122

>  <exports>  (172) 
['/opt/xchem-fragalysis-2/maxwin/BulkDock/OUTPUTS/openbind_a71ev2a_c1_knitwork_pure_165VWF8.sdf', '/opt/xchem-fragalysis-2/maxwin/BulkDock/OUTPUTS/openbind_a71ev2a_c1_knitwork_pure_1B07PTU.sdf', '/opt/xchem-fragalysis-2/maxwin/BulkDock/OUTPUTS/openbind_a71ev2a_c1_knitwork_pure_1B07UWE.sdf', '/opt/xchem-fragalysis-2/maxwin/openbind-hippo/a71ev2a/openbind_a71ev2a_c1_scaffold_products.sdf', '/opt/xchem-fragalysis-2/maxwin/openbind-hippo/a71ev2a/cycle_01/bulkdock/openbind_a71ev2a_c1_scaffold_products.sdf', '/opt/xchem-fragalysis-2/maxwin/openbind-hippo/a71ev2a/cycle_01/bulkdock/openbind_a71ev2a_c1_scaffolds.sdf']

>  <fragmenstein_runtime>  (172) 
1.951257

$$$$
C40527-P76
     RDKit          3D

 25 27  0  0  0  0  0  0  0  0999 V2000
   18.3169   18.6831    0.4473 C   0  0  0  0  0  0  0  0  0  0  0  0
   18.8810   17.4812    1.1577 C   0  0  0  0  0  0  0  0  0  0  0  0
   20.1873   17.5433    1.6632 C   0  0  0  0  0  0  0  0  0  0  0  0
   20.7880   16.4447    2.2858 C   0  0  0  0  0  0  0  0  0  0  0  0
   20.0247   15.2815    2.4161 C   0  0  0  0  0  0  0  0  0  0  0  0
   20.3232   14.0590    2.9643 N   0  0  0  0  0  0  0  0  0  0  0  0
   19.2969   13.1858    2.9386 N   0  0  0  0  0  0  0  0  0  0  0  0
   18.3466   13.8475    2.2718 C   0  0  0  0  0  0  0  0  0  0  0  0
   18.7215   15.1718    1.9409 C   0  0  0  0  0  0  0  0  0  0  0  0
   18.1498   16.2746    1.2687 C   0  0  0  0  0  0  0  0  0  0  0  0
   16.8283   16.1335    0.6032 C   0  0  0  0  0  0  0  0  0  0  0  0
   16.7603   16.3506   -0.5378 O   0  0  0  0  0  0  0  0  0  0  0  0
   15.7332   15.7584    1.6119 N   0  0  0  0  0  0  0  0  0  0  0  0
   14.3249   15.4758    1.4119 C   0  0  1  0  0  0  0  0  0  0  0  0
   13.9094   14.2922    2.2733 C   0  0  0  0  0  0  0  0  0  0  0  0
   13.4938   16.7413    1.6833 C   0  0  0  0  0  0  0  0  0  0  0  0
   12.2723   16.8826    0.7744 C   0  0  0  0  0  0  0  0  0  0  0  0
   11.2319   15.9310    1.0453 N   0  0  0  0  0  0  0  0  0  0  0  0
   10.1985   15.8778    2.1814 C   0  0  0  0  0  0  0  0  0  0  0  0
    9.9760   16.6375    3.0357 O   0  0  0  0  0  0  0  0  0  0  0  0
    9.4770   14.5874    2.0889 C   0  0  0  0  0  0  0  0  0  0  0  0
    8.4453   14.1044    2.9361 C   0  0  0  0  0  0  0  0  0  0  0  0
    8.1770   12.8333    2.4917 C   0  0  0  0  0  0  0  0  0  0  0  0
    9.0146   12.6173    1.4411 N   0  0  0  0  0  0  0  0  0  0  0  0
    9.8100   13.6654    1.1602 N   0  0  0  0  0  0  0  0  0  0  0  0
  1  2  1  0
  2  3  2  0
  3  4  1  0
  4  5  2  0
  5  6  1  0
  6  7  1  0
  7  8  2  0
  8  9  1  0
  9 10  2  0
 10 11  1  0
 11 12  2  0
 11 13  1  0
 13 14  1  0
 14 15  1  1
 14 16  1  0
 16 17  1  0
 17 18  1  0
 18 19  1  0
 19 20  2  0
 19 21  1  0
 21 22  1  0
 22 23  2  0
 23 24  1  0
 24 25  1  0
 10  2  1  0
 25 21  2  0
  9  5  1  0
M  END
>  <ref_pdb>  (173) 
A0717a

>  <subsites>  (173) 
3 - A0541/A/147/1,6 - A0486/A/147/1

>  <HIPPO Compound ID>  (173) 
51495

>  <energy_score>  (173) 
-22.087702

>  <fragmenstein_mode>  (173) 
expansion

>  <scratch_subdir>  (173) 
/opt/xchem-fragalysis-2/maxwin/BulkDock/SCRATCH/512159/C40527-P76

>  <smiles>  (173) 
Cc1ccc2[nH]ncc2c1C(=O)N[C@@H](C)CCNC(=O)c1cc[nH]n1

>  <alias>  (173) 
C40527-P76

>  <ref_mols>  (173) 
A0486a,A0717a

>  <inspiration_score>  (173) 
None

>  <tags>  (173) 
BulkDock Fragalysis export,fragmenstein_placed,openbind_a71ev2a_c1_scaffolds,openbind_a71ev2a_c1_knitwork_pure

>  <fragmenstein_outcome>  (173) 
acceptable

>  <fragmenstein_error>  (173) 


>  <distance_score>  (173) 
0.986777

>  <inchikey>  (173) 
GFDFFRLXIZNDDL-UHFFFAOYSA-N

>  <name>  (173) 
C40527-P76

>  <HIPPO Pose ID>  (173) 
165211

>  <Energy>  (173) 
75.86119

>  <exports>  (173) 
['/opt/xchem-fragalysis-2/maxwin/BulkDock/OUTPUTS/openbind_a71ev2a_c1_knitwork_pure_165VWF8.sdf', '/opt/xchem-fragalysis-2/maxwin/BulkDock/OUTPUTS/openbind_a71ev2a_c1_knitwork_pure_1B07PTU.sdf', '/opt/xchem-fragalysis-2/maxwin/BulkDock/OUTPUTS/openbind_a71ev2a_c1_knitwork_pure_1B07UWE.sdf', '/opt/xchem-fragalysis-2/maxwin/openbind-hippo/a71ev2a/openbind_a71ev2a_c1_scaffold_products.sdf', '/opt/xchem-fragalysis-2/maxwin/openbind-hippo/a71ev2a/cycle_01/bulkdock/openbind_a71ev2a_c1_scaffold_products.sdf', '/opt/xchem-fragalysis-2/maxwin/openbind-hippo/a71ev2a/cycle_01/bulkdock/openbind_a71ev2a_c1_scaffolds.sdf']

>  <fragmenstein_runtime>  (173) 
2.096886

$$$$
C102839-P76
     RDKit          3D

 25 27  0  0  0  0  0  0  0  0999 V2000
   15.3157   18.3986    1.4089 O   0  0  0  0  0  0  0  0  0  0  0  0
   15.8143   18.6917    2.4245 C   0  0  0  0  0  0  0  0  0  0  0  0
   17.3390   18.8411    2.5647 C   0  0  0  0  0  0  0  0  0  0  0  0
   18.1450   17.5613    2.4512 C   0  0  0  0  0  0  0  0  0  0  0  0
   19.5111   17.6444    2.1212 C   0  0  0  0  0  0  0  0  0  0  0  0
   20.3444   16.5168    2.1066 C   0  0  0  0  0  0  0  0  0  0  0  0
   19.7591   15.2945    2.4438 C   0  0  0  0  0  0  0  0  0  0  0  0
   20.2817   14.0327    2.5780 N   0  0  0  0  0  0  0  0  0  0  0  0
   19.3747   13.0989    2.9363 N   0  0  0  0  0  0  0  0  0  0  0  0
   18.2382   13.7926    3.0309 C   0  0  0  0  0  0  0  0  0  0  0  0
   18.4117   15.1662    2.7561 C   0  0  0  0  0  0  0  0  0  0  0  0
   17.5904   16.3080    2.7644 C   0  0  0  0  0  0  0  0  0  0  0  0
   15.1730   19.0345    3.8001 N   0  0  0  0  0  0  0  0  0  0  0  0
   13.7809   19.1791    4.1796 C   0  0  0  0  0  0  0  0  0  0  0  0
   13.0362   17.8336    4.2665 C   0  0  1  0  0  0  0  0  0  0  0  0
   13.3913   17.2072    5.5201 O   0  0  0  0  0  0  0  0  0  0  0  0
   11.5111   18.0544    4.1400 C   0  0  0  0  0  0  0  0  0  0  0  0
   10.7998   16.8915    3.6483 N   0  0  0  0  0  0  0  0  0  0  0  0
    9.3758   16.3833    3.9564 C   0  0  0  0  0  0  0  0  0  0  0  0
    8.5798   16.7773    4.7122 O   0  0  0  0  0  0  0  0  0  0  0  0
    9.1142   15.1860    3.1124 C   0  0  0  0  0  0  0  0  0  0  0  0
    8.0530   14.2516    3.2465 C   0  0  0  0  0  0  0  0  0  0  0  0
    8.2835   13.2923    2.2911 C   0  0  0  0  0  0  0  0  0  0  0  0
    9.4110   13.6802    1.6349 N   0  0  0  0  0  0  0  0  0  0  0  0
    9.9555   14.8168    2.1181 N   0  0  0  0  0  0  0  0  0  0  0  0
  1  2  2  0
  2  3  1  0
  3  4  1  0
  4  5  2  0
  5  6  1  0
  6  7  2  0
  7  8  1  0
  8  9  1  0
  9 10  2  0
 10 11  1  0
 11 12  2  0
  2 13  1  0
 13 14  1  0
 14 15  1  0
 15 16  1  1
 15 17  1  0
 17 18  1  0
 18 19  1  0
 19 20  2  0
 19 21  1  0
 21 22  1  0
 22 23  2  0
 23 24  1  0
 24 25  1  0
 12  4  1  0
 25 21  2  0
 11  7  1  0
M  END
>  <ref_pdb>  (174) 
A0717a

>  <subsites>  (174) 
3 - A0541/A/147/1,6 - A0486/A/147/1

>  <HIPPO Compound ID>  (174) 
102839

>  <energy_score>  (174) 
-15.353598

>  <fragmenstein_mode>  (174) 
expansion

>  <scratch_subdir>  (174) 
/opt/xchem-fragalysis-2/maxwin/BulkDock/SCRATCH/512159/C102839-P76

>  <smiles>  (174) 
O=C(Cc1ccc2[nH]ncc2c1)NC[C@@H](O)CNC(=O)c1cc[nH]n1

>  <alias>  (174) 
C102839-P76

>  <ref_mols>  (174) 
A0486a,A0717a

>  <inspiration_score>  (174) 
None

>  <tags>  (174) 
BulkDock Fragalysis export,fragmenstein_placed,openbind_a71ev2a_c1_scaffolds,openbind_a71ev2a_c1_knitwork_pure

>  <fragmenstein_outcome>  (174) 
acceptable

>  <fragmenstein_error>  (174) 


>  <distance_score>  (174) 
0.866949

>  <inchikey>  (174) 
XZIKUBYEVMCBKL-UHFFFAOYSA-N

>  <name>  (174) 
C102839-P76

>  <HIPPO Pose ID>  (174) 
165257

>  <Energy>  (174) 
114.867626

>  <exports>  (174) 
['/opt/xchem-fragalysis-2/maxwin/BulkDock/OUTPUTS/openbind_a71ev2a_c1_knitwork_pure_165VWF8.sdf', '/opt/xchem-fragalysis-2/maxwin/BulkDock/OUTPUTS/openbind_a71ev2a_c1_knitwork_pure_1B07PTU.sdf', '/opt/xchem-fragalysis-2/maxwin/BulkDock/OUTPUTS/openbind_a71ev2a_c1_knitwork_pure_1B07UWE.sdf', '/opt/xchem-fragalysis-2/maxwin/openbind-hippo/a71ev2a/openbind_a71ev2a_c1_scaffold_products.sdf', '/opt/xchem-fragalysis-2/maxwin/openbind-hippo/a71ev2a/cycle_01/bulkdock/openbind_a71ev2a_c1_scaffold_products.sdf', '/opt/xchem-fragalysis-2/maxwin/openbind-hippo/a71ev2a/cycle_01/bulkdock/openbind_a71ev2a_c1_scaffolds.sdf']

>  <fragmenstein_runtime>  (174) 
2.597944

$$$$
C45903-P363
     RDKit          3D

 21 23  0  0  0  0  0  0  0  0999 V2000
   24.7872   18.5885   25.6763 O   0  0  0  0  0  0  0  0  0  0  0  0
   23.9858   18.0681   24.6087 C   0  0  2  0  0  0  0  0  0  0  0  0
   24.2914   18.8486   23.3257 C   0  0  0  0  0  0  0  0  0  0  0  0
   25.7884   18.8694   23.0343 C   0  0  0  0  0  0  0  0  0  0  0  0
   26.0544   19.2449   21.6470 N   0  0  0  0  0  0  0  0  0  0  0  0
   26.5848   20.5263   21.4633 C   0  0  0  0  0  0  0  0  0  0  0  0
   25.8902   21.6451   21.8439 C   0  0  0  0  0  0  0  0  0  0  0  0
   26.5419   22.8315   21.6627 C   0  0  0  0  0  0  0  0  0  0  0  0
   27.7793   22.9284   21.1525 N   0  0  0  0  0  0  0  0  0  0  0  0
   28.3898   21.7926   20.7690 C   0  0  0  0  0  0  0  0  0  0  0  0
   29.7054   21.8761   20.2760 N   0  0  0  0  0  0  0  0  0  0  0  0
   30.0739   20.7522   19.4193 C   0  0  0  0  0  0  0  0  0  0  0  0
   31.5609   20.7969   19.0745 C   0  0  0  0  0  0  0  0  0  0  0  0
   31.9501   22.1449   18.4813 C   0  0  0  0  0  0  0  0  0  0  0  0
   31.5419   23.2700   19.4245 C   0  0  0  0  0  0  0  0  0  0  0  0
   30.0537   23.2050   19.7715 C   0  0  0  0  0  0  0  0  0  0  0  0
   27.7986   20.5903   20.8888 N   0  0  0  0  0  0  0  0  0  0  0  0
   22.5130   18.2253   24.9921 C   0  0  0  0  0  0  0  0  0  0  0  0
   21.4701   17.5316   24.0771 C   0  0  0  0  0  0  0  0  0  0  0  0
   21.4905   16.3348   25.0452 C   0  0  0  0  0  0  0  0  0  0  0  0
   21.9915   17.3025   26.1310 C   0  0  0  0  0  0  0  0  0  0  0  0
  2  1  1  1
  2  3  1  0
  3  4  1  0
  4  5  1  0
  5  6  1  0
  6  7  2  0
  7  8  1  0
  8  9  2  0
  9 10  1  0
 10 11  1  0
 11 12  1  0
 12 13  1  0
 13 14  1  0
 14 15  1  0
 15 16  1  0
 10 17  2  0
  2 18  1  0
 18 19  1  0
 19 20  1  0
 20 21  1  0
 17  6  1  0
 21 18  1  0
 16 11  1  0
M  END
>  <ref_pdb>  (175) 
A4445a

>  <subsites>  (175) 
1 - Active Site,5 - A3181/A/202/1

>  <HIPPO Compound ID>  (175) 
57140

>  <energy_score>  (175) 
-56.436585

>  <fragmenstein_mode>  (175) 
expansion

>  <scratch_subdir>  (175) 
/opt/xchem-fragalysis-2/maxwin/BulkDock/SCRATCH/512159/C45903-P363

>  <smiles>  (175) 
O[C@H](CCNc1ccnc(N2CCCCC2)n1)C1CCC1

>  <alias>  (175) 
C45903-P363

>  <ref_mols>  (175) 
A4445a,A1146a

>  <inspiration_score>  (175) 
None

>  <tags>  (175) 
BulkDock Fragalysis export,fragmenstein_placed,openbind_a71ev2a_c1_scaffolds,openbind_a71ev2a_c1_knitwork_pure

>  <fragmenstein_outcome>  (175) 
acceptable

>  <fragmenstein_error>  (175) 


>  <distance_score>  (175) 
0.587881

>  <inchikey>  (175) 
ZUHBPFRFPPEFBP-UHFFFAOYSA-N

>  <name>  (175) 
C45903-P363

>  <HIPPO Pose ID>  (175) 
165980

>  <Energy>  (175) 
-98.517792

>  <exports>  (175) 
['/opt/xchem-fragalysis-2/maxwin/BulkDock/OUTPUTS/openbind_a71ev2a_c1_knitwork_pure_165VWF8.sdf', '/opt/xchem-fragalysis-2/maxwin/BulkDock/OUTPUTS/openbind_a71ev2a_c1_knitwork_pure_1B07PTU.sdf', '/opt/xchem-fragalysis-2/maxwin/BulkDock/OUTPUTS/openbind_a71ev2a_c1_knitwork_pure_1B07UWE.sdf', '/opt/xchem-fragalysis-2/maxwin/openbind-hippo/a71ev2a/openbind_a71ev2a_c1_scaffold_products.sdf', '/opt/xchem-fragalysis-2/maxwin/openbind-hippo/a71ev2a/cycle_01/bulkdock/openbind_a71ev2a_c1_scaffold_products.sdf', '/opt/xchem-fragalysis-2/maxwin/openbind-hippo/a71ev2a/cycle_01/bulkdock/openbind_a71ev2a_c1_scaffolds.sdf']

>  <fragmenstein_runtime>  (175) 
128.845614

$$$$
C51842-P135
     RDKit          3D

 13 13  0  0  0  0  0  0  0  0999 V2000
   10.1638    8.3395   23.1124 C   0  0  0  0  0  0  0  0  0  0  0  0
   10.5771    9.6414   23.4487 O   0  0  0  0  0  0  0  0  0  0  0  0
    9.5574   10.4056   23.9460 C   0  0  0  0  0  0  0  0  0  0  0  0
    8.6521    9.8886   24.8072 N   0  0  0  0  0  0  0  0  0  0  0  0
    7.7537   10.7497   25.3278 C   0  0  0  0  0  0  0  0  0  0  0  0
    7.6990   12.0898   24.9976 C   0  0  0  0  0  0  0  0  0  0  0  0
    8.6243   12.5867   24.0745 C   0  0  0  0  0  0  0  0  0  0  0  0
    8.5179   14.0019   23.6005 C   0  0  2  0  0  0  0  0  0  0  0  0
    7.3391   14.2150   22.6682 C   0  0  0  0  0  0  0  0  0  0  0  0
    9.7705   14.4674   22.9275 C   0  0  0  0  0  0  0  0  0  0  0  0
   10.5225   15.2766   23.4453 O   0  0  0  0  0  0  0  0  0  0  0  0
    9.6002   11.7264   23.5862 C   0  0  0  0  0  0  0  0  0  0  0  0
   10.5556   12.1387   22.7451 F   0  0  0  0  0  0  0  0  0  0  0  0
  1  2  1  0
  2  3  1  0
  3  4  2  0
  4  5  1  0
  5  6  2  0
  6  7  1  0
  7  8  1  0
  8  9  1  6
  8 10  1  0
 10 11  2  0
  7 12  2  0
 12 13  1  0
 12  3  1  0
M  END
>  <ref_pdb>  (176) 
A2629a

>  <subsites>  (176) 
1 - Active Site

>  <HIPPO Compound ID>  (176) 
40538

>  <energy_score>  (176) 
-9.358178

>  <fragmenstein_mode>  (176) 
expansion

>  <scratch_subdir>  (176) 
/opt/xchem-fragalysis-2/maxwin/BulkDock/SCRATCH/512159/C51842-P135

>  <smiles>  (176) 
COc1nccc([C@H](C)C=O)c1F

>  <alias>  (176) 
C51842-P135

>  <ref_mols>  (176) 
A4526a,A2629a

>  <inspiration_score>  (176) 
None

>  <tags>  (176) 
BulkDock Fragalysis export,fragmenstein_placed,openbind_a71ev2a_c1_scaffolds,openbind_a71ev2a_c1_knitwork_pure

>  <fragmenstein_outcome>  (176) 
acceptable

>  <fragmenstein_error>  (176) 


>  <distance_score>  (176) 
0.830674

>  <inchikey>  (176) 
NPOXOZWYVHTEHK-UHFFFAOYSA-N

>  <name>  (176) 
C51842-P135

>  <HIPPO Pose ID>  (176) 
166072

>  <Energy>  (176) 
47.771917

>  <exports>  (176) 
['/opt/xchem-fragalysis-2/maxwin/BulkDock/OUTPUTS/openbind_a71ev2a_c1_knitwork_pure_165VWF8.sdf', '/opt/xchem-fragalysis-2/maxwin/BulkDock/OUTPUTS/openbind_a71ev2a_c1_knitwork_pure_1B07PTU.sdf', '/opt/xchem-fragalysis-2/maxwin/BulkDock/OUTPUTS/openbind_a71ev2a_c1_knitwork_pure_1B07UWE.sdf', '/opt/xchem-fragalysis-2/maxwin/openbind-hippo/a71ev2a/openbind_a71ev2a_c1_scaffold_products.sdf', '/opt/xchem-fragalysis-2/maxwin/openbind-hippo/a71ev2a/cycle_01/bulkdock/openbind_a71ev2a_c1_scaffold_products.sdf', '/opt/xchem-fragalysis-2/maxwin/openbind-hippo/a71ev2a/cycle_01/bulkdock/openbind_a71ev2a_c1_scaffolds.sdf']

>  <fragmenstein_runtime>  (176) 
2.562478

$$$$
C51851-P135
     RDKit          3D

 13 13  0  0  0  0  0  0  0  0999 V2000
   10.0458    8.7726   22.7238 C   0  0  0  0  0  0  0  0  0  0  0  0
   10.5493    9.9609   23.3309 O   0  0  0  0  0  0  0  0  0  0  0  0
    9.6109   10.8094   23.8383 C   0  0  0  0  0  0  0  0  0  0  0  0
    8.5921   10.3371   24.6552 C   0  0  0  0  0  0  0  0  0  0  0  0
    7.6947   11.2422   25.1655 C   0  0  0  0  0  0  0  0  0  0  0  0
    7.7045   12.5375   24.8284 N   0  0  0  0  0  0  0  0  0  0  0  0
    8.7065   12.9703   24.0193 C   0  0  0  0  0  0  0  0  0  0  0  0
    8.3469   14.5336   23.4151 Cl  0  0  0  0  0  0  0  0  0  0  0  0
    9.7506   12.1765   23.5585 C   0  0  0  0  0  0  0  0  0  0  0  0
   11.0313   12.6592   22.9028 C   0  0  2  0  0  0  0  0  0  0  0  0
   12.1217   12.8524   23.9581 C   0  0  0  0  0  0  0  0  0  0  0  0
   10.9743   13.9089   22.0809 C   0  0  0  0  0  0  0  0  0  0  0  0
   11.2179   15.0153   22.5532 O   0  0  0  0  0  0  0  0  0  0  0  0
  1  2  1  0
  2  3  1  0
  3  4  2  0
  4  5  1  0
  5  6  2  0
  6  7  1  0
  7  8  1  0
  7  9  2  0
  9 10  1  0
 10 11  1  1
 10 12  1  0
 12 13  2  0
  9  3  1  0
M  END
>  <ref_pdb>  (177) 
A2629a

>  <subsites>  (177) 
1 - Active Site

>  <HIPPO Compound ID>  (177) 
50865

>  <energy_score>  (177) 
-13.82318

>  <fragmenstein_mode>  (177) 
expansion

>  <scratch_subdir>  (177) 
/opt/xchem-fragalysis-2/maxwin/BulkDock/SCRATCH/512159/C51851-P135

>  <smiles>  (177) 
COc1ccnc(Cl)c1[C@H](C)C=O

>  <alias>  (177) 
C51851-P135

>  <ref_mols>  (177) 
A4526a,A2629a

>  <inspiration_score>  (177) 
None

>  <tags>  (177) 
BulkDock Fragalysis export,fragmenstein_placed,openbind_a71ev2a_c1_scaffolds,openbind_a71ev2a_c1_knitwork_pure

>  <fragmenstein_outcome>  (177) 
acceptable

>  <fragmenstein_error>  (177) 


>  <distance_score>  (177) 
0.614337

>  <inchikey>  (177) 
FSKMWAXPTGYBAB-UHFFFAOYSA-N

>  <name>  (177) 
C51851-P135

>  <HIPPO Pose ID>  (177) 
166082

>  <Energy>  (177) 
27.97507

>  <exports>  (177) 
['/opt/xchem-fragalysis-2/maxwin/BulkDock/OUTPUTS/openbind_a71ev2a_c1_knitwork_pure_165VWF8.sdf', '/opt/xchem-fragalysis-2/maxwin/BulkDock/OUTPUTS/openbind_a71ev2a_c1_knitwork_pure_1B07PTU.sdf', '/opt/xchem-fragalysis-2/maxwin/BulkDock/OUTPUTS/openbind_a71ev2a_c1_knitwork_pure_1B07UWE.sdf', '/opt/xchem-fragalysis-2/maxwin/openbind-hippo/a71ev2a/openbind_a71ev2a_c1_scaffold_products.sdf', '/opt/xchem-fragalysis-2/maxwin/openbind-hippo/a71ev2a/cycle_01/bulkdock/openbind_a71ev2a_c1_scaffold_products.sdf', '/opt/xchem-fragalysis-2/maxwin/openbind-hippo/a71ev2a/cycle_01/bulkdock/openbind_a71ev2a_c1_scaffolds.sdf']

>  <fragmenstein_runtime>  (177) 
2.45458

$$$$
C51859-P135
     RDKit          3D

 13 13  0  0  0  0  0  0  0  0999 V2000
   10.0511    8.7753   22.7040 C   0  0  0  0  0  0  0  0  0  0  0  0
   10.5168   10.0160   23.2229 O   0  0  0  0  0  0  0  0  0  0  0  0
    9.5894   10.7992   23.8450 C   0  0  0  0  0  0  0  0  0  0  0  0
    8.5995   10.2522   24.6486 C   0  0  0  0  0  0  0  0  0  0  0  0
    7.7021   11.1037   25.2420 C   0  0  0  0  0  0  0  0  0  0  0  0
    7.6948   12.4202   25.0118 N   0  0  0  0  0  0  0  0  0  0  0  0
    8.6651   12.9329   24.2220 C   0  0  0  0  0  0  0  0  0  0  0  0
    8.4026   14.2235   23.9154 O   0  0  0  0  0  0  0  0  0  0  0  0
    9.7013   12.1886   23.6653 C   0  0  0  0  0  0  0  0  0  0  0  0
   10.9344   12.7193   22.9515 C   0  0  2  0  0  0  0  0  0  0  0  0
   12.0995   12.8604   23.9282 C   0  0  0  0  0  0  0  0  0  0  0  0
   10.8295   14.0381   22.2585 C   0  0  0  0  0  0  0  0  0  0  0  0
   10.4521   15.0488   22.8507 O   0  0  0  0  0  0  0  0  0  0  0  0
  1  2  1  0
  2  3  1  0
  3  4  2  0
  4  5  1  0
  5  6  2  0
  6  7  1  0
  7  8  1  0
  7  9  2  0
  9 10  1  0
 10 11  1  1
 10 12  1  0
 12 13  2  0
  9  3  1  0
M  END
>  <ref_pdb>  (178) 
A2629a

>  <subsites>  (178) 
1 - Active Site

>  <HIPPO Compound ID>  (178) 
8079

>  <energy_score>  (178) 
-20.211264

>  <fragmenstein_mode>  (178) 
expansion

>  <scratch_subdir>  (178) 
/opt/xchem-fragalysis-2/maxwin/BulkDock/SCRATCH/512159/C51859-P135

>  <smiles>  (178) 
COc1ccnc(O)c1[C@H](C)C=O

>  <alias>  (178) 
C51859-P135

>  <ref_mols>  (178) 
A4526a,A2629a

>  <inspiration_score>  (178) 
None

>  <tags>  (178) 
BulkDock Fragalysis export,fragmenstein_placed,openbind_a71ev2a_c1_scaffolds,openbind_a71ev2a_c1_knitwork_pure

>  <fragmenstein_outcome>  (178) 
acceptable

>  <fragmenstein_error>  (178) 


>  <distance_score>  (178) 
0.656105

>  <inchikey>  (178) 
BGYVPCNSURXTSF-UHFFFAOYSA-N

>  <name>  (178) 
C51859-P135

>  <HIPPO Pose ID>  (178) 
166092

>  <Energy>  (178) 
0.070827

>  <exports>  (178) 
['/opt/xchem-fragalysis-2/maxwin/BulkDock/OUTPUTS/openbind_a71ev2a_c1_knitwork_pure_165VWF8.sdf', '/opt/xchem-fragalysis-2/maxwin/BulkDock/OUTPUTS/openbind_a71ev2a_c1_knitwork_pure_1B07PTU.sdf', '/opt/xchem-fragalysis-2/maxwin/BulkDock/OUTPUTS/openbind_a71ev2a_c1_knitwork_pure_1B07UWE.sdf', '/opt/xchem-fragalysis-2/maxwin/openbind-hippo/a71ev2a/openbind_a71ev2a_c1_scaffold_products.sdf', '/opt/xchem-fragalysis-2/maxwin/openbind-hippo/a71ev2a/cycle_01/bulkdock/openbind_a71ev2a_c1_scaffold_products.sdf', '/opt/xchem-fragalysis-2/maxwin/openbind-hippo/a71ev2a/cycle_01/bulkdock/openbind_a71ev2a_c1_scaffolds.sdf']

>  <fragmenstein_runtime>  (178) 
2.477203

$$$$
C51872-P391
     RDKit          3D

 13 13  0  0  0  0  0  0  0  0999 V2000
   10.0239    8.8383   23.3758 C   0  0  0  0  0  0  0  0  0  0  0  0
   10.1631   10.2256   23.1815 O   0  0  0  0  0  0  0  0  0  0  0  0
    9.2870   11.0215   23.8536 C   0  0  0  0  0  0  0  0  0  0  0  0
    9.3068   12.3513   23.4696 C   0  0  0  0  0  0  0  0  0  0  0  0
    8.4428   13.2505   24.0959 C   0  0  0  0  0  0  0  0  0  0  0  0
    8.2045   14.6215   23.4964 C   0  0  2  0  0  0  0  0  0  0  0  0
    7.0478   14.5225   22.4981 C   0  0  0  0  0  0  0  0  0  0  0  0
    9.4297   15.2130   22.8290 C   0  0  0  0  0  0  0  0  0  0  0  0
    9.5118   15.4601   21.6307 O   0  0  0  0  0  0  0  0  0  0  0  0
    7.6699   12.7647   25.1552 C   0  0  0  0  0  0  0  0  0  0  0  0
    6.7162   13.7874   26.1551 Cl  0  0  0  0  0  0  0  0  0  0  0  0
    7.6850   11.4019   25.4239 C   0  0  0  0  0  0  0  0  0  0  0  0
    8.4809   10.5123   24.7998 N   0  0  0  0  0  0  0  0  0  0  0  0
  1  2  1  0
  2  3  1  0
  3  4  2  0
  4  5  1  0
  5  6  1  0
  6  7  1  6
  6  8  1  0
  8  9  2  0
  5 10  2  0
 10 11  1  0
 10 12  1  0
 12 13  2  0
 13  3  1  0
M  END
>  <ref_pdb>  (179) 
A4526a

>  <subsites>  (179) 
1 - Active Site

>  <HIPPO Compound ID>  (179) 
51268

>  <energy_score>  (179) 
-14.302438

>  <fragmenstein_mode>  (179) 
expansion

>  <scratch_subdir>  (179) 
/opt/xchem-fragalysis-2/maxwin/BulkDock/SCRATCH/512159/C51872-P391

>  <smiles>  (179) 
COc1cc([C@H](C)C=O)c(Cl)cn1

>  <alias>  (179) 
C51872-P391

>  <ref_mols>  (179) 
A4526a,A2629a

>  <inspiration_score>  (179) 
None

>  <tags>  (179) 
BulkDock Fragalysis export,fragmenstein_placed,openbind_a71ev2a_c1_scaffolds,openbind_a71ev2a_c1_knitwork_pure

>  <fragmenstein_outcome>  (179) 
acceptable

>  <fragmenstein_error>  (179) 


>  <distance_score>  (179) 
0.885599

>  <inchikey>  (179) 
IYQGGEDPMPIKFJ-UHFFFAOYSA-N

>  <name>  (179) 
C51872-P391

>  <HIPPO Pose ID>  (179) 
166109

>  <Energy>  (179) 
31.752811

>  <exports>  (179) 
['/opt/xchem-fragalysis-2/maxwin/BulkDock/OUTPUTS/openbind_a71ev2a_c1_knitwork_pure_165VWF8.sdf', '/opt/xchem-fragalysis-2/maxwin/BulkDock/OUTPUTS/openbind_a71ev2a_c1_knitwork_pure_1B07PTU.sdf', '/opt/xchem-fragalysis-2/maxwin/BulkDock/OUTPUTS/openbind_a71ev2a_c1_knitwork_pure_1B07UWE.sdf', '/opt/xchem-fragalysis-2/maxwin/openbind-hippo/a71ev2a/openbind_a71ev2a_c1_scaffold_products.sdf', '/opt/xchem-fragalysis-2/maxwin/openbind-hippo/a71ev2a/cycle_01/bulkdock/openbind_a71ev2a_c1_scaffold_products.sdf', '/opt/xchem-fragalysis-2/maxwin/openbind-hippo/a71ev2a/cycle_01/bulkdock/openbind_a71ev2a_c1_scaffolds.sdf']

>  <fragmenstein_runtime>  (179) 
3.158819

$$$$
C51876-P135
     RDKit          3D

 13 13  0  0  0  0  0  0  0  0999 V2000
   10.0704    8.7354   22.8312 C   0  0  0  0  0  0  0  0  0  0  0  0
   10.5825    9.7738   23.6587 O   0  0  0  0  0  0  0  0  0  0  0  0
    9.5819   10.6079   24.0664 C   0  0  0  0  0  0  0  0  0  0  0  0
    8.6961   10.0960   24.9528 N   0  0  0  0  0  0  0  0  0  0  0  0
    7.7220   10.9127   25.3834 C   0  0  0  0  0  0  0  0  0  0  0  0
    7.5352   12.1878   24.8927 C   0  0  0  0  0  0  0  0  0  0  0  0
    8.4156   12.6742   23.9173 C   0  0  0  0  0  0  0  0  0  0  0  0
    8.1004   13.9129   23.1124 C   0  0  1  0  0  0  0  0  0  0  0  0
    6.6210   14.2680   23.0182 C   0  0  0  0  0  0  0  0  0  0  0  0
    8.9028   15.1010   23.5351 C   0  0  0  0  0  0  0  0  0  0  0  0
    8.7904   16.1791   22.9607 O   0  0  0  0  0  0  0  0  0  0  0  0
    9.5492   11.9126   23.6084 C   0  0  0  0  0  0  0  0  0  0  0  0
   10.8633   12.5723   22.7136 Cl  0  0  0  0  0  0  0  0  0  0  0  0
  1  2  1  0
  2  3  1  0
  3  4  2  0
  4  5  1  0
  5  6  2  0
  6  7  1  0
  7  8  1  0
  8  9  1  1
  8 10  1  0
 10 11  2  0
  7 12  2  0
 12 13  1  0
 12  3  1  0
M  END
>  <ref_pdb>  (180) 
A2629a

>  <subsites>  (180) 
1 - Active Site

>  <HIPPO Compound ID>  (180) 
48106

>  <energy_score>  (180) 
-11.111289

>  <fragmenstein_mode>  (180) 
expansion

>  <scratch_subdir>  (180) 
/opt/xchem-fragalysis-2/maxwin/BulkDock/SCRATCH/512159/C51876-P135

>  <smiles>  (180) 
COc1nccc([C@@H](C)C=O)c1Cl

>  <alias>  (180) 
C51876-P135

>  <ref_mols>  (180) 
A4526a,A2629a

>  <inspiration_score>  (180) 
None

>  <tags>  (180) 
BulkDock Fragalysis export,fragmenstein_placed,openbind_a71ev2a_c1_scaffolds,openbind_a71ev2a_c1_knitwork_pure

>  <fragmenstein_outcome>  (180) 
acceptable

>  <fragmenstein_error>  (180) 


>  <distance_score>  (180) 
0.883195

>  <inchikey>  (180) 
NVVHARBSTPILPF-UHFFFAOYSA-N

>  <name>  (180) 
C51876-P135

>  <HIPPO Pose ID>  (180) 
166114

>  <Energy>  (180) 
55.541099

>  <exports>  (180) 
['/opt/xchem-fragalysis-2/maxwin/BulkDock/OUTPUTS/openbind_a71ev2a_c1_knitwork_pure_165VWF8.sdf', '/opt/xchem-fragalysis-2/maxwin/BulkDock/OUTPUTS/openbind_a71ev2a_c1_knitwork_pure_1B07PTU.sdf', '/opt/xchem-fragalysis-2/maxwin/BulkDock/OUTPUTS/openbind_a71ev2a_c1_knitwork_pure_1B07UWE.sdf', '/opt/xchem-fragalysis-2/maxwin/openbind-hippo/a71ev2a/openbind_a71ev2a_c1_scaffold_products.sdf', '/opt/xchem-fragalysis-2/maxwin/openbind-hippo/a71ev2a/cycle_01/bulkdock/openbind_a71ev2a_c1_scaffold_products.sdf', '/opt/xchem-fragalysis-2/maxwin/openbind-hippo/a71ev2a/cycle_01/bulkdock/openbind_a71ev2a_c1_scaffolds.sdf']

>  <fragmenstein_runtime>  (180) 
2.59854

$$$$
C45780-P328
     RDKit          3D

 19 21  0  0  0  0  0  0  0  0999 V2000
    7.3419   13.1341   22.4271 O   0  0  0  0  0  0  0  0  0  0  0  0
    8.0315   14.1481   23.2008 S   0  0  0  0  0  0  0  0  0  0  0  0
    7.4508   15.4570   23.4094 O   0  0  0  0  0  0  0  0  0  0  0  0
    9.6290   14.3467   22.4535 C   0  0  2  0  0  0  0  0  0  0  0  0
   10.6778   14.9626   23.3725 C   0  0  0  0  0  0  0  0  0  0  0  0
   11.9861   15.0341   22.6023 C   0  0  0  0  0  0  0  0  0  0  0  0
   11.8302   15.8174   21.3025 C   0  0  0  0  0  0  0  0  0  0  0  0
   10.7764   15.2603   20.4508 N   0  0  0  0  0  0  0  0  0  0  0  0
    9.5000   15.1791   21.1782 C   0  0  0  0  0  0  0  0  0  0  0  0
    8.4970   13.5004   24.7389 N   0  0  0  0  0  0  0  0  0  0  0  0
    8.2485   14.4575   25.8798 C   0  0  0  0  0  0  0  0  0  0  0  0
    6.8576   14.0787   26.4298 C   0  0  0  0  0  0  0  0  0  0  0  0
    6.8015   12.6320   26.0643 C   0  0  0  0  0  0  0  0  0  0  0  0
    5.9458   11.6495   26.5037 C   0  0  0  0  0  0  0  0  0  0  0  0
    4.9998   11.9215   27.4108 F   0  0  0  0  0  0  0  0  0  0  0  0
    6.1010   10.3513   26.0258 C   0  0  0  0  0  0  0  0  0  0  0  0
    7.1178   10.0480   25.1052 C   0  0  0  0  0  0  0  0  0  0  0  0
    7.9516   11.0509   24.6174 C   0  0  0  0  0  0  0  0  0  0  0  0
    7.7654   12.3279   25.1078 C   0  0  0  0  0  0  0  0  0  0  0  0
  1  2  2  0
  2  3  2  0
  4  2  1  1
  4  5  1  0
  5  6  1  0
  6  7  1  0
  7  8  1  0
  8  9  1  0
  2 10  1  0
 10 11  1  0
 11 12  1  0
 12 13  1  0
 13 14  2  0
 14 15  1  0
 14 16  1  0
 16 17  2  0
 17 18  1  0
 18 19  2  0
  9  4  1  0
 19 10  1  0
 19 13  1  0
M  END
>  <ref_pdb>  (181) 
A4374a

>  <subsites>  (181) 
1 - Active Site

>  <HIPPO Compound ID>  (181) 
98884

>  <energy_score>  (181) 
-39.18149

>  <fragmenstein_mode>  (181) 
expansion

>  <scratch_subdir>  (181) 
/opt/xchem-fragalysis-2/maxwin/BulkDock/SCRATCH/512159/C45780-P328

>  <smiles>  (181) 
O=S(=O)([C@@H]1CCCNC1)N1CCc2c(F)cccc21

>  <alias>  (181) 
C45780-P328

>  <ref_mols>  (181) 
A4374a,A1778a

>  <inspiration_score>  (181) 
None

>  <tags>  (181) 
BulkDock Fragalysis export,fragmenstein_placed,openbind_a71ev2a_c1_scaffolds,openbind_a71ev2a_c1_knitwork_pure

>  <fragmenstein_outcome>  (181) 
acceptable

>  <fragmenstein_error>  (181) 


>  <distance_score>  (181) 
0.667475

>  <inchikey>  (181) 
GANHUCHPQYNYPW-UHFFFAOYSA-N

>  <name>  (181) 
C45780-P328

>  <HIPPO Pose ID>  (181) 
167674

>  <Energy>  (181) 
-8.982032

>  <exports>  (181) 
['/opt/xchem-fragalysis-2/maxwin/BulkDock/OUTPUTS/openbind_a71ev2a_c1_knitwork_pure_165VWF8.sdf', '/opt/xchem-fragalysis-2/maxwin/BulkDock/OUTPUTS/openbind_a71ev2a_c1_knitwork_pure_1B07PTU.sdf', '/opt/xchem-fragalysis-2/maxwin/BulkDock/OUTPUTS/openbind_a71ev2a_c1_knitwork_pure_1B07UWE.sdf', '/opt/xchem-fragalysis-2/maxwin/openbind-hippo/a71ev2a/openbind_a71ev2a_c1_scaffold_products.sdf', '/opt/xchem-fragalysis-2/maxwin/openbind-hippo/a71ev2a/cycle_01/bulkdock/openbind_a71ev2a_c1_scaffold_products.sdf', '/opt/xchem-fragalysis-2/maxwin/openbind-hippo/a71ev2a/cycle_01/bulkdock/openbind_a71ev2a_c1_scaffolds.sdf']

>  <fragmenstein_runtime>  (181) 
58.197935

$$$$
C50807-P183
     RDKit          3D

 20 21  0  0  0  0  0  0  0  0999 V2000
   10.2178   14.1270   25.2722 O   0  0  0  0  0  0  0  0  0  0  0  0
   10.1727   13.5093   24.2851 C   0  0  0  0  0  0  0  0  0  0  0  0
   10.9911   13.6383   22.9910 N   0  0  0  0  0  0  0  0  0  0  0  0
   11.9703   14.6102   22.6008 C   0  0  0  0  0  0  0  0  0  0  0  0
   12.1093   14.6852   21.0881 C   0  0  0  0  0  0  0  0  0  0  0  0
   10.9215   15.2613   20.4124 C   0  0  0  0  0  0  0  0  0  0  0  0
   10.6673   15.3538   19.0316 C   0  0  0  0  0  0  0  0  0  0  0  0
    9.5885   16.0942   18.7684 N   0  0  0  0  0  0  0  0  0  0  0  0
    9.1944   16.5351   19.9687 N   0  0  0  0  0  0  0  0  0  0  0  0
    9.8529   15.9153   20.9761 C   0  0  0  0  0  0  0  0  0  0  0  0
    9.2530   12.3276   24.2600 C   0  0  0  0  0  0  0  0  0  0  0  0
    8.1725   12.2762   25.1329 C   0  0  0  0  0  0  0  0  0  0  0  0
    7.5812   11.0500   25.3668 C   0  0  0  0  0  0  0  0  0  0  0  0
    7.9976    9.8969   24.7961 N   0  0  0  0  0  0  0  0  0  0  0  0
    8.9846    9.9714   23.8564 C   0  0  0  0  0  0  0  0  0  0  0  0
    9.4678    8.7523   23.0712 C   0  0  0  0  0  0  0  0  0  0  0  0
    9.9081    9.1106   21.8349 F   0  0  0  0  0  0  0  0  0  0  0  0
    8.5166    7.8243   22.8650 F   0  0  0  0  0  0  0  0  0  0  0  0
   10.5185    8.1162   23.6504 F   0  0  0  0  0  0  0  0  0  0  0  0
    9.6100   11.1751   23.5704 C   0  0  0  0  0  0  0  0  0  0  0  0
  1  2  2  0
  2  3  1  0
  3  4  1  0
  4  5  1  0
  5  6  1  0
  6  7  1  0
  7  8  2  0
  8  9  1  0
  9 10  1  0
  2 11  1  0
 11 12  2  0
 12 13  1  0
 13 14  2  0
 14 15  1  0
 15 16  1  0
 16 17  1  0
 16 18  1  0
 16 19  1  0
 15 20  2  0
 10  6  2  0
 20 11  1  0
M  END
>  <ref_pdb>  (182) 
A3436a

>  <subsites>  (182) 
1 - Active Site

>  <HIPPO Compound ID>  (182) 
53866

>  <energy_score>  (182) 
-4.350803

>  <fragmenstein_mode>  (182) 
expansion

>  <scratch_subdir>  (182) 
/opt/xchem-fragalysis-2/maxwin/BulkDock/SCRATCH/512159/C50807-P183

>  <smiles>  (182) 
O=C(NCCc1cn[nH]c1)c1ccnc(C(F)(F)F)c1

>  <alias>  (182) 
C50807-P183

>  <ref_mols>  (182) 
A0556a,A3436a

>  <inspiration_score>  (182) 
None

>  <tags>  (182) 
BulkDock Fragalysis export,fragmenstein_placed,openbind_a71ev2a_c1_scaffolds,openbind_a71ev2a_c1_knitwork_pure

>  <fragmenstein_outcome>  (182) 
acceptable

>  <fragmenstein_error>  (182) 


>  <distance_score>  (182) 
0.546946

>  <inchikey>  (182) 
LZSDVVWDNGTYCM-UHFFFAOYSA-N

>  <name>  (182) 
C50807-P183

>  <HIPPO Pose ID>  (182) 
168207

>  <Energy>  (182) 
93.155655

>  <exports>  (182) 
['/opt/xchem-fragalysis-2/maxwin/BulkDock/OUTPUTS/openbind_a71ev2a_c1_knitwork_pure_165VWF8.sdf', '/opt/xchem-fragalysis-2/maxwin/BulkDock/OUTPUTS/openbind_a71ev2a_c1_knitwork_pure_1B07PTU.sdf', '/opt/xchem-fragalysis-2/maxwin/BulkDock/OUTPUTS/openbind_a71ev2a_c1_knitwork_pure_1B07UWE.sdf', '/opt/xchem-fragalysis-2/maxwin/openbind-hippo/a71ev2a/openbind_a71ev2a_c1_scaffold_products.sdf', '/opt/xchem-fragalysis-2/maxwin/openbind-hippo/a71ev2a/cycle_01/bulkdock/openbind_a71ev2a_c1_scaffold_products.sdf', '/opt/xchem-fragalysis-2/maxwin/openbind-hippo/a71ev2a/cycle_01/bulkdock/openbind_a71ev2a_c1_scaffolds.sdf']

>  <fragmenstein_runtime>  (182) 
4.252331

$$$$
C50814-P183
     RDKit          3D

 17 18  0  0  0  0  0  0  0  0999 V2000
    6.4461   10.7502   26.1671 N   0  0  0  0  0  0  0  0  0  0  0  0
    7.5670   10.7931   25.3364 C   0  0  0  0  0  0  0  0  0  0  0  0
    8.1391   12.0103   25.0303 C   0  0  0  0  0  0  0  0  0  0  0  0
    9.2101   12.0451   24.1433 C   0  0  0  0  0  0  0  0  0  0  0  0
   10.0232   13.3016   24.1142 C   0  0  0  0  0  0  0  0  0  0  0  0
    9.9493   13.9902   25.0506 O   0  0  0  0  0  0  0  0  0  0  0  0
   10.8997   13.4169   22.8633 N   0  0  0  0  0  0  0  0  0  0  0  0
   11.9406   14.3498   22.5362 C   0  0  0  0  0  0  0  0  0  0  0  0
   12.0946   14.5739   21.0413 C   0  0  0  0  0  0  0  0  0  0  0  0
   10.9156   15.2120   20.4092 C   0  0  0  0  0  0  0  0  0  0  0  0
   10.6504   15.3738   19.0375 C   0  0  0  0  0  0  0  0  0  0  0  0
    9.5768   16.1350   18.8190 N   0  0  0  0  0  0  0  0  0  0  0  0
    9.1921   16.5181   20.0433 N   0  0  0  0  0  0  0  0  0  0  0  0
    9.8650   15.8570   21.0159 C   0  0  0  0  0  0  0  0  0  0  0  0
    9.5830   10.8711   23.4981 C   0  0  0  0  0  0  0  0  0  0  0  0
    8.9852    9.6917   23.8895 C   0  0  0  0  0  0  0  0  0  0  0  0
    8.0074    9.6422   24.8162 N   0  0  0  0  0  0  0  0  0  0  0  0
  1  2  1  0
  2  3  2  0
  3  4  1  0
  4  5  1  0
  5  6  2  0
  5  7  1  0
  7  8  1  0
  8  9  1  0
  9 10  1  0
 10 11  1  0
 11 12  2  0
 12 13  1  0
 13 14  1  0
  4 15  2  0
 15 16  1  0
 16 17  2  0
 17  2  1  0
 14 10  2  0
M  END
>  <ref_pdb>  (183) 
A3436a

>  <subsites>  (183) 
1 - Active Site

>  <HIPPO Compound ID>  (183) 
48513

>  <energy_score>  (183) 
-3.994442

>  <fragmenstein_mode>  (183) 
expansion

>  <scratch_subdir>  (183) 
/opt/xchem-fragalysis-2/maxwin/BulkDock/SCRATCH/512159/C50814-P183

>  <smiles>  (183) 
Nc1cc(C(=O)NCCc2cn[nH]c2)ccn1

>  <alias>  (183) 
C50814-P183

>  <ref_mols>  (183) 
A0556a,A3436a

>  <inspiration_score>  (183) 
None

>  <tags>  (183) 
BulkDock Fragalysis export,fragmenstein_placed,openbind_a71ev2a_c1_scaffolds,openbind_a71ev2a_c1_knitwork_pure

>  <fragmenstein_outcome>  (183) 
acceptable

>  <fragmenstein_error>  (183) 


>  <distance_score>  (183) 
0.699381

>  <inchikey>  (183) 
REJJTMAGDYDVGV-UHFFFAOYSA-N

>  <name>  (183) 
C50814-P183

>  <HIPPO Pose ID>  (183) 
168217

>  <Energy>  (183) 
-11.984779

>  <exports>  (183) 
['/opt/xchem-fragalysis-2/maxwin/BulkDock/OUTPUTS/openbind_a71ev2a_c1_knitwork_pure_165VWF8.sdf', '/opt/xchem-fragalysis-2/maxwin/BulkDock/OUTPUTS/openbind_a71ev2a_c1_knitwork_pure_1B07PTU.sdf', '/opt/xchem-fragalysis-2/maxwin/BulkDock/OUTPUTS/openbind_a71ev2a_c1_knitwork_pure_1B07UWE.sdf', '/opt/xchem-fragalysis-2/maxwin/openbind-hippo/a71ev2a/openbind_a71ev2a_c1_scaffold_products.sdf', '/opt/xchem-fragalysis-2/maxwin/openbind-hippo/a71ev2a/cycle_01/bulkdock/openbind_a71ev2a_c1_scaffold_products.sdf', '/opt/xchem-fragalysis-2/maxwin/openbind-hippo/a71ev2a/cycle_01/bulkdock/openbind_a71ev2a_c1_scaffolds.sdf']

>  <fragmenstein_runtime>  (183) 
2.623486

$$$$
C66327-P229
     RDKit          3D

 18 20  0  0  0  0  0  0  0  0999 V2000
   10.2340   12.7779   25.4825 O   0  0  0  0  0  0  0  0  0  0  0  0
    9.2733   12.7993   24.8289 C   0  0  0  0  0  0  0  0  0  0  0  0
    8.9323   13.6347   23.5938 N   0  0  0  0  0  0  0  0  0  0  0  0
    9.6719   14.7064   22.9429 C   0  0  0  0  0  0  0  0  0  0  0  0
   11.1801   14.5430   23.1808 C   0  0  0  0  0  0  0  0  0  0  0  0
   11.9805   15.5554   22.3819 C   0  0  0  0  0  0  0  0  0  0  0  0
   11.6581   15.4472   20.9701 N   0  0  0  0  0  0  0  0  0  0  0  0
   10.2549   15.7523   20.7169 C   0  0  0  0  0  0  0  0  0  0  0  0
    9.3588   14.7583   21.4490 C   0  0  0  0  0  0  0  0  0  0  0  0
    8.2242   11.8154   25.1474 C   0  0  0  0  0  0  0  0  0  0  0  0
    7.1806   12.2221   25.9829 C   0  0  0  0  0  0  0  0  0  0  0  0
    6.3035   11.2680   26.4745 C   0  0  0  0  0  0  0  0  0  0  0  0
    6.5166    9.9509   26.1178 C   0  0  0  0  0  0  0  0  0  0  0  0
    7.5191    9.5372   25.3048 N   0  0  0  0  0  0  0  0  0  0  0  0
    8.3867   10.4651   24.7969 C   0  0  0  0  0  0  0  0  0  0  0  0
    9.5198   10.0052   23.8833 C   0  0  0  0  0  0  0  0  0  0  0  0
    9.3144    9.0176   22.7643 C   0  0  0  0  0  0  0  0  0  0  0  0
   10.0521    8.5925   23.9565 C   0  0  0  0  0  0  0  0  0  0  0  0
  1  2  2  0
  2  3  1  0
  3  4  1  0
  4  5  1  0
  5  6  1  0
  6  7  1  0
  7  8  1  0
  8  9  1  0
  2 10  1  0
 10 11  2  0
 11 12  1  0
 12 13  2  0
 13 14  1  0
 14 15  2  0
 15 16  1  0
 16 17  1  0
 17 18  1  0
  9  4  1  0
 15 10  1  0
 18 16  1  0
M  END
>  <ref_pdb>  (184) 
A3869a

>  <subsites>  (184) 
1 - Active Site

>  <HIPPO Compound ID>  (184) 
60642

>  <energy_score>  (184) 
-8.804836

>  <fragmenstein_mode>  (184) 
expansion

>  <scratch_subdir>  (184) 
/opt/xchem-fragalysis-2/maxwin/BulkDock/SCRATCH/512160/C66327-P229

>  <smiles>  (184) 
O=C(NC1CCNCC1)c1cccnc1C1CC1

>  <alias>  (184) 
C66327-P229

>  <ref_mols>  (184) 
A3869a,A0875a

>  <inspiration_score>  (184) 
None

>  <tags>  (184) 
BulkDock Fragalysis export,fragmenstein_placed,openbind_a71ev2a_c1_scaffolds,openbind_a71ev2a_c1_knitwork_pure

>  <fragmenstein_outcome>  (184) 
acceptable

>  <fragmenstein_error>  (184) 


>  <distance_score>  (184) 
0.961172

>  <inchikey>  (184) 
APTDDJHCLKZSQW-UHFFFAOYSA-N

>  <name>  (184) 
C66327-P229

>  <HIPPO Pose ID>  (184) 
171126

>  <Energy>  (184) 
47.950283

>  <exports>  (184) 
['/opt/xchem-fragalysis-2/maxwin/BulkDock/OUTPUTS/openbind_a71ev2a_c1_knitwork_pure_165VWF8.sdf', '/opt/xchem-fragalysis-2/maxwin/BulkDock/OUTPUTS/openbind_a71ev2a_c1_knitwork_pure_1B07PTU.sdf', '/opt/xchem-fragalysis-2/maxwin/BulkDock/OUTPUTS/openbind_a71ev2a_c1_knitwork_pure_1B07UWE.sdf', '/opt/xchem-fragalysis-2/maxwin/openbind-hippo/a71ev2a/openbind_a71ev2a_c1_scaffold_products.sdf', '/opt/xchem-fragalysis-2/maxwin/openbind-hippo/a71ev2a/cycle_01/bulkdock/openbind_a71ev2a_c1_scaffold_products.sdf', '/opt/xchem-fragalysis-2/maxwin/openbind-hippo/a71ev2a/cycle_01/bulkdock/openbind_a71ev2a_c1_scaffolds.sdf']

>  <fragmenstein_runtime>  (184) 
3.83522

$$$$
C51400-P344
     RDKit          3D

 19 19  0  0  0  0  0  0  0  0999 V2000
    9.4325    8.7431   23.1002 C   0  0  0  0  0  0  0  0  0  0  0  0
    9.5730   10.1303   23.3384 O   0  0  0  0  0  0  0  0  0  0  0  0
    8.7401   10.7197   24.2427 C   0  0  0  0  0  0  0  0  0  0  0  0
    7.8611   10.0815   25.1020 C   0  0  0  0  0  0  0  0  0  0  0  0
    7.0262   10.8473   25.9135 C   0  0  0  0  0  0  0  0  0  0  0  0
    7.1340   12.2292   25.8535 C   0  0  0  0  0  0  0  0  0  0  0  0
    5.9433   13.2954   26.8574 Br  0  0  0  0  0  0  0  0  0  0  0  0
    8.0307   12.8713   25.0879 N   0  0  0  0  0  0  0  0  0  0  0  0
    8.7816   12.1138   24.2774 C   0  0  0  0  0  0  0  0  0  0  0  0
    9.5466   12.7221   23.3109 N   0  0  0  0  0  0  0  0  0  0  0  0
    9.8891   14.2146   23.0929 C   0  0  0  0  0  0  0  0  0  0  0  0
    9.6395   15.1493   23.7422 O   0  0  0  0  0  0  0  0  0  0  0  0
   10.5650   14.2259   21.7397 C   0  0  0  0  0  0  0  0  0  0  0  0
   10.8126   15.6285   21.2165 C   0  0  1  0  0  0  0  0  0  0  0  0
   12.1857   16.0960   21.6747 C   0  0  0  0  0  0  0  0  0  0  0  0
   10.6282   15.6216   19.7092 C   0  0  0  0  0  0  0  0  0  0  0  0
   11.4775   14.7784   19.0871 F   0  0  0  0  0  0  0  0  0  0  0  0
   10.7722   16.8442   19.1783 F   0  0  0  0  0  0  0  0  0  0  0  0
    9.3711   15.2243   19.4100 F   0  0  0  0  0  0  0  0  0  0  0  0
  1  2  1  0
  2  3  1  0
  3  4  2  0
  4  5  1  0
  5  6  2  0
  6  7  1  0
  6  8  1  0
  8  9  2  0
  9 10  1  0
 10 11  1  0
 11 12  2  0
 11 13  1  0
 13 14  1  0
 14 15  1  6
 14 16  1  0
 16 17  1  0
 16 18  1  0
 16 19  1  0
  9  3  1  0
M  END
>  <ref_pdb>  (185) 
A4274b

>  <subsites>  (185) 
1 - Active Site

>  <HIPPO Compound ID>  (185) 
67126

>  <energy_score>  (185) 
-8.412332

>  <fragmenstein_mode>  (185) 
expansion

>  <scratch_subdir>  (185) 
/opt/xchem-fragalysis-2/maxwin/BulkDock/SCRATCH/512160/C51400-P344

>  <smiles>  (185) 
COc1ccc(Br)nc1NC(=O)C[C@@H](C)C(F)(F)F

>  <alias>  (185) 
C51400-P344

>  <ref_mols>  (185) 
A4274b,A1445a

>  <inspiration_score>  (185) 
None

>  <tags>  (185) 
BulkDock Fragalysis export,fragmenstein_placed,openbind_a71ev2a_c1_scaffolds,openbind_a71ev2a_c1_knitwork_pure

>  <fragmenstein_outcome>  (185) 
acceptable

>  <fragmenstein_error>  (185) 


>  <distance_score>  (185) 
0.653432

>  <inchikey>  (185) 
VBOWZCAKGFDBNA-UHFFFAOYSA-N

>  <name>  (185) 
C51400-P344

>  <HIPPO Pose ID>  (185) 
172482

>  <Energy>  (185) 
8.633356

>  <exports>  (185) 
['/opt/xchem-fragalysis-2/maxwin/BulkDock/OUTPUTS/openbind_a71ev2a_c1_knitwork_pure_165VWF8.sdf', '/opt/xchem-fragalysis-2/maxwin/BulkDock/OUTPUTS/openbind_a71ev2a_c1_knitwork_pure_1B07PTU.sdf', '/opt/xchem-fragalysis-2/maxwin/BulkDock/OUTPUTS/openbind_a71ev2a_c1_knitwork_pure_1B07UWE.sdf', '/opt/xchem-fragalysis-2/maxwin/openbind-hippo/a71ev2a/openbind_a71ev2a_c1_scaffold_products.sdf', '/opt/xchem-fragalysis-2/maxwin/openbind-hippo/a71ev2a/cycle_01/bulkdock/openbind_a71ev2a_c1_scaffold_products.sdf', '/opt/xchem-fragalysis-2/maxwin/openbind-hippo/a71ev2a/cycle_01/bulkdock/openbind_a71ev2a_c1_scaffolds.sdf']

>  <fragmenstein_runtime>  (185) 
3.376765

$$$$
C51401-P344
     RDKit          3D

 21 21  0  0  0  0  0  0  0  0999 V2000
    9.3183    8.7674   23.3432 C   0  0  0  0  0  0  0  0  0  0  0  0
    9.4145   10.1746   23.4724 O   0  0  0  0  0  0  0  0  0  0  0  0
    8.5979   10.8109   24.3661 C   0  0  0  0  0  0  0  0  0  0  0  0
    7.6235   10.2327   25.1695 C   0  0  0  0  0  0  0  0  0  0  0  0
    6.8313   11.0708   25.9638 C   0  0  0  0  0  0  0  0  0  0  0  0
    5.6933   10.5512   26.6978 N   0  0  0  0  0  0  0  0  0  0  0  0
    5.3520   11.1438   27.7302 O   0  0  0  0  0  0  0  0  0  0  0  0
    5.1417    9.5409   26.2531 O   0  0  0  0  0  0  0  0  0  0  0  0
    7.0844   12.4297   25.9987 C   0  0  0  0  0  0  0  0  0  0  0  0
    8.0606   13.0026   25.2651 N   0  0  0  0  0  0  0  0  0  0  0  0
    8.7498   12.2017   24.4291 C   0  0  0  0  0  0  0  0  0  0  0  0
    9.5401   12.7726   23.4583 N   0  0  0  0  0  0  0  0  0  0  0  0
    9.8637   14.2586   23.1716 C   0  0  0  0  0  0  0  0  0  0  0  0
    9.5732   15.2218   23.7596 O   0  0  0  0  0  0  0  0  0  0  0  0
   10.5911   14.2223   21.8422 C   0  0  0  0  0  0  0  0  0  0  0  0
   10.8381   15.6115   21.2740 C   0  0  1  0  0  0  0  0  0  0  0  0
   12.2204   16.0842   21.6942 C   0  0  0  0  0  0  0  0  0  0  0  0
   10.6249   15.5817   19.7704 C   0  0  0  0  0  0  0  0  0  0  0  0
   11.4578   14.7254   19.1441 F   0  0  0  0  0  0  0  0  0  0  0  0
   10.7686   16.7958   19.2169 F   0  0  0  0  0  0  0  0  0  0  0  0
    9.3596   15.1870   19.5042 F   0  0  0  0  0  0  0  0  0  0  0  0
  1  2  1  0
  2  3  1  0
  3  4  2  0
  4  5  1  0
  5  6  1  0
  6  7  2  0
  6  8  1  0
  5  9  2  0
  9 10  1  0
 10 11  2  0
 11 12  1  0
 12 13  1  0
 13 14  2  0
 13 15  1  0
 15 16  1  0
 16 17  1  6
 16 18  1  0
 18 19  1  0
 18 20  1  0
 18 21  1  0
 11  3  1  0
M  CHG  2   6   1   8  -1
M  END
>  <ref_pdb>  (186) 
A4274b

>  <subsites>  (186) 
1 - Active Site

>  <HIPPO Compound ID>  (186) 
28111

>  <energy_score>  (186) 
-14.009552

>  <fragmenstein_mode>  (186) 
expansion

>  <scratch_subdir>  (186) 
/opt/xchem-fragalysis-2/maxwin/BulkDock/SCRATCH/512160/C51401-P344

>  <smiles>  (186) 
COc1cc([N+](=O)[O-])cnc1NC(=O)C[C@@H](C)C(F)(F)F

>  <alias>  (186) 
C51401-P344

>  <ref_mols>  (186) 
A4274b,A1445a

>  <inspiration_score>  (186) 
None

>  <tags>  (186) 
BulkDock Fragalysis export,fragmenstein_placed,openbind_a71ev2a_c1_scaffolds,openbind_a71ev2a_c1_knitwork_pure

>  <fragmenstein_outcome>  (186) 
acceptable

>  <fragmenstein_error>  (186) 


>  <distance_score>  (186) 
0.611015

>  <inchikey>  (186) 
XCWVUVAVUJWFCW-UHFFFAOYSA-N

>  <name>  (186) 
C51401-P344

>  <HIPPO Pose ID>  (186) 
172483

>  <Energy>  (186) 
32.857969

>  <exports>  (186) 
['/opt/xchem-fragalysis-2/maxwin/BulkDock/OUTPUTS/openbind_a71ev2a_c1_knitwork_pure_165VWF8.sdf', '/opt/xchem-fragalysis-2/maxwin/BulkDock/OUTPUTS/openbind_a71ev2a_c1_knitwork_pure_1B07PTU.sdf', '/opt/xchem-fragalysis-2/maxwin/BulkDock/OUTPUTS/openbind_a71ev2a_c1_knitwork_pure_1B07UWE.sdf', '/opt/xchem-fragalysis-2/maxwin/openbind-hippo/a71ev2a/openbind_a71ev2a_c1_scaffold_products.sdf', '/opt/xchem-fragalysis-2/maxwin/openbind-hippo/a71ev2a/cycle_01/bulkdock/openbind_a71ev2a_c1_scaffold_products.sdf', '/opt/xchem-fragalysis-2/maxwin/openbind-hippo/a71ev2a/cycle_01/bulkdock/openbind_a71ev2a_c1_scaffolds.sdf']

>  <fragmenstein_runtime>  (186) 
3.987648

$$$$
C52381-P344
     RDKit          3D

 21 23  0  0  0  0  0  0  0  0999 V2000
    8.1479   15.5714   21.8675 O   0  0  0  0  0  0  0  0  0  0  0  0
    7.0550   14.8323   22.4582 S   0  0  0  0  0  0  0  0  0  0  0  0
    6.8326   13.4476   22.0937 O   0  0  0  0  0  0  0  0  0  0  0  0
    7.1908   15.0314   24.2397 C   0  0  0  0  0  0  0  0  0  0  0  0
    8.2561   14.1262   24.8338 C   0  0  0  0  0  0  0  0  0  0  0  0
    7.6549   12.7445   25.0778 C   0  0  0  0  0  0  0  0  0  0  0  0
    8.6182   11.5896   24.9153 C   0  0  0  0  0  0  0  0  0  0  0  0
    7.9117   10.2417   25.0371 C   0  0  0  0  0  0  0  0  0  0  0  0
    8.6343    9.2926   24.0959 C   0  0  0  0  0  0  0  0  0  0  0  0
    9.7385   10.0794   23.4492 C   0  0  0  0  0  0  0  0  0  0  0  0
    9.3467   11.5346   23.5848 C   0  0  0  0  0  0  0  0  0  0  0  0
    5.6579   15.7054   22.1231 N   0  0  0  0  0  0  0  0  0  0  0  0
    4.3264   15.1466   22.4547 C   0  0  0  0  0  0  0  0  0  0  0  0
    3.7855   15.3987   23.8813 C   0  0  0  0  0  0  0  0  0  0  0  0
    2.8353   14.5781   24.5117 C   0  0  0  0  0  0  0  0  0  0  0  0
    2.3517   14.8596   25.7908 C   0  0  0  0  0  0  0  0  0  0  0  0
    2.8320   15.9785   26.4389 C   0  0  0  0  0  0  0  0  0  0  0  0
    3.7428   16.8061   25.8976 N   0  0  0  0  0  0  0  0  0  0  0  0
    4.1864   16.4954   24.6531 C   0  0  0  0  0  0  0  0  0  0  0  0
    3.8631   13.9365   21.6506 C   0  0  0  0  0  0  0  0  0  0  0  0
    3.2606   15.2652   21.3619 C   0  0  0  0  0  0  0  0  0  0  0  0
  1  2  2  0
  2  3  2  0
  2  4  1  0
  4  5  1  0
  5  6  1  0
  6  7  1  0
  7  8  1  0
  8  9  1  0
  9 10  1  0
 10 11  1  0
  2 12  1  0
 12 13  1  0
 13 14  1  0
 14 15  2  0
 15 16  1  0
 16 17  2  0
 17 18  1  0
 18 19  2  0
 13 20  1  0
 20 21  1  0
 11  7  1  0
 21 13  1  0
 19 14  1  0
M  END
>  <ref_pdb>  (187) 
A4274b

>  <subsites>  (187) 
1 - Active Site

>  <HIPPO Compound ID>  (187) 
97354

>  <energy_score>  (187) 
-42.557953

>  <fragmenstein_mode>  (187) 
expansion

>  <scratch_subdir>  (187) 
/opt/xchem-fragalysis-2/maxwin/BulkDock/SCRATCH/512160/C52381-P344

>  <smiles>  (187) 
O=S(=O)(CCCC1CCCC1)NC1(c2cccnc2)CC1

>  <alias>  (187) 
C52381-P344

>  <ref_mols>  (187) 
A4274b,A0719a

>  <inspiration_score>  (187) 
None

>  <tags>  (187) 
BulkDock Fragalysis export,fragmenstein_placed,openbind_a71ev2a_c1_scaffolds,openbind_a71ev2a_c1_knitwork_pure

>  <fragmenstein_outcome>  (187) 
acceptable

>  <fragmenstein_error>  (187) 


>  <distance_score>  (187) 
0.924371

>  <inchikey>  (187) 
XFJSHQDMGLUATN-UHFFFAOYSA-N

>  <name>  (187) 
C52381-P344

>  <HIPPO Pose ID>  (187) 
178223

>  <Energy>  (187) 
-20.457806

>  <exports>  (187) 
['/opt/xchem-fragalysis-2/maxwin/BulkDock/OUTPUTS/openbind_a71ev2a_c1_knitwork_pure_165VWF8.sdf', '/opt/xchem-fragalysis-2/maxwin/BulkDock/OUTPUTS/openbind_a71ev2a_c1_knitwork_pure_1B07PTU.sdf', '/opt/xchem-fragalysis-2/maxwin/BulkDock/OUTPUTS/openbind_a71ev2a_c1_knitwork_pure_1B07UWE.sdf', '/opt/xchem-fragalysis-2/maxwin/openbind-hippo/a71ev2a/openbind_a71ev2a_c1_scaffold_products.sdf', '/opt/xchem-fragalysis-2/maxwin/openbind-hippo/a71ev2a/cycle_01/bulkdock/openbind_a71ev2a_c1_scaffold_products.sdf', '/opt/xchem-fragalysis-2/maxwin/openbind-hippo/a71ev2a/cycle_01/bulkdock/openbind_a71ev2a_c1_scaffolds.sdf']

>  <fragmenstein_runtime>  (187) 
5.36414

$$$$
C48046-P344
     RDKit          3D

 20 21  0  0  0  0  0  0  0  0999 V2000
    5.0442   15.0504   21.6733 N   0  0  0  0  0  0  0  0  0  0  0  0
    6.3968   14.7307   22.6159 S   0  0  0  0  0  0  0  0  0  0  0  0
    6.7865   13.3860   22.2487 O   0  0  0  0  0  0  0  0  0  0  0  0
    7.2335   15.8879   22.4323 O   0  0  0  0  0  0  0  0  0  0  0  0
    5.6512   14.7971   24.2543 C   0  0  0  0  0  0  0  0  0  0  0  0
    6.5643   15.1729   25.4193 C   0  0  0  0  0  0  0  0  0  0  0  0
    6.9287   14.0324   26.3962 C   0  0  0  0  0  0  0  0  0  0  0  0
    7.8291   12.9598   25.9507 N   0  0  0  0  0  0  0  0  0  0  0  0
    7.1365   11.8020   25.4119 C   0  0  0  0  0  0  0  0  0  0  0  0
    8.1235   10.7028   25.0612 C   0  0  0  0  0  0  0  0  0  0  0  0
    9.1071   11.1486   23.9895 C   0  0  0  0  0  0  0  0  0  0  0  0
    9.7217   12.5344   24.2448 C   0  0  1  0  0  0  0  0  0  0  0  0
   10.1533   13.1795   22.8944 C   0  0  0  0  0  0  0  0  0  0  0  0
   10.1031   14.6463   22.9031 N   0  0  0  0  0  0  0  0  0  0  0  0
   11.1462   15.2908   23.6861 C   0  0  0  0  0  0  0  0  0  0  0  0
   12.4654   15.2658   22.9552 C   0  0  0  0  0  0  0  0  0  0  0  0
   12.3494   15.9679   21.6161 C   0  0  0  0  0  0  0  0  0  0  0  0
   11.2922   15.2748   20.7736 C   0  0  0  0  0  0  0  0  0  0  0  0
    9.9828   15.2217   21.5488 C   0  0  0  0  0  0  0  0  0  0  0  0
    8.7797   13.4849   24.9803 C   0  0  0  0  0  0  0  0  0  0  0  0
  1  2  1  0
  2  3  2  0
  2  4  2  0
  2  5  1  0
  5  6  1  0
  6  7  1  0
  7  8  1  0
  8  9  1  0
  9 10  1  0
 10 11  1  0
 11 12  1  0
 12 13  1  6
 13 14  1  0
 14 15  1  0
 15 16  1  0
 16 17  1  0
 17 18  1  0
 18 19  1  0
 12 20  1  0
 20  8  1  0
 19 14  1  0
M  END
>  <ref_pdb>  (188) 
A4274b

>  <subsites>  (188) 
1 - Active Site

>  <HIPPO Compound ID>  (188) 
49991

>  <energy_score>  (188) 
-55.703309

>  <fragmenstein_mode>  (188) 
expansion

>  <scratch_subdir>  (188) 
/opt/xchem-fragalysis-2/maxwin/BulkDock/SCRATCH/512160/C48046-P344

>  <smiles>  (188) 
NS(=O)(=O)CCCN1CCC[C@@H](CN2CCCCC2)C1

>  <alias>  (188) 
C48046-P344

>  <ref_mols>  (188) 
A4274b,A0719a

>  <inspiration_score>  (188) 
None

>  <tags>  (188) 
BulkDock Fragalysis export,fragmenstein_placed,openbind_a71ev2a_c1_scaffolds,openbind_a71ev2a_c1_knitwork_pure

>  <fragmenstein_outcome>  (188) 
acceptable

>  <fragmenstein_error>  (188) 


>  <distance_score>  (188) 
0.856072

>  <inchikey>  (188) 
XMBXZMQOVGUTTG-UHFFFAOYSA-N

>  <name>  (188) 
C48046-P344

>  <HIPPO Pose ID>  (188) 
178310

>  <Energy>  (188) 
-50.019347

>  <exports>  (188) 
['/opt/xchem-fragalysis-2/maxwin/BulkDock/OUTPUTS/openbind_a71ev2a_c1_knitwork_pure_165VWF8.sdf', '/opt/xchem-fragalysis-2/maxwin/BulkDock/OUTPUTS/openbind_a71ev2a_c1_knitwork_pure_1B07PTU.sdf', '/opt/xchem-fragalysis-2/maxwin/BulkDock/OUTPUTS/openbind_a71ev2a_c1_knitwork_pure_1B07UWE.sdf', '/opt/xchem-fragalysis-2/maxwin/openbind-hippo/a71ev2a/openbind_a71ev2a_c1_scaffold_products.sdf', '/opt/xchem-fragalysis-2/maxwin/openbind-hippo/a71ev2a/cycle_01/bulkdock/openbind_a71ev2a_c1_scaffold_products.sdf', '/opt/xchem-fragalysis-2/maxwin/openbind-hippo/a71ev2a/cycle_01/bulkdock/openbind_a71ev2a_c1_scaffolds.sdf']

>  <fragmenstein_runtime>  (188) 
2.790307

$$$$
C52382-P229
     RDKit          3D

 21 23  0  0  0  0  0  0  0  0999 V2000
    9.6478   13.5367   21.5388 O   0  0  0  0  0  0  0  0  0  0  0  0
    9.9261   13.0566   22.8668 S   0  0  0  0  0  0  0  0  0  0  0  0
   10.0055   11.6446   23.1334 O   0  0  0  0  0  0  0  0  0  0  0  0
   11.4367   13.7985   23.4658 C   0  0  0  0  0  0  0  0  0  0  0  0
   11.6113   15.2317   23.0262 C   0  0  0  0  0  0  0  0  0  0  0  0
   11.9824   15.2959   21.5460 C   0  0  0  0  0  0  0  0  0  0  0  0
   11.1891   16.3199   20.8294 C   0  0  0  0  0  0  0  0  0  0  0  0
    9.7514   16.2702   20.3941 C   0  0  0  0  0  0  0  0  0  0  0  0
   10.8310   16.0450   19.3845 C   0  0  0  0  0  0  0  0  0  0  0  0
    8.6447   13.6792   23.6710 N   0  0  0  0  0  0  0  0  0  0  0  0
    8.2542   13.6923   25.0769 C   0  0  0  0  0  0  0  0  0  0  0  0
    7.5862   12.3998   25.5811 C   0  0  0  0  0  0  0  0  0  0  0  0
    6.3745   12.4004   26.2932 C   0  0  0  0  0  0  0  0  0  0  0  0
    5.7723   11.2211   26.7341 C   0  0  0  0  0  0  0  0  0  0  0  0
    6.3861   10.0266   26.4462 C   0  0  0  0  0  0  0  0  0  0  0  0
    7.5561    9.9521   25.7966 N   0  0  0  0  0  0  0  0  0  0  0  0
    8.1208   11.1259   25.3913 C   0  0  0  0  0  0  0  0  0  0  0  0
    7.3106   14.9429   25.1868 C   0  0  0  0  0  0  0  0  0  0  0  0
    7.4695   15.5170   26.5958 C   0  0  0  0  0  0  0  0  0  0  0  0
    8.7127   14.8579   27.1696 C   0  0  0  0  0  0  0  0  0  0  0  0
    9.3905   14.2144   25.9655 C   0  0  0  0  0  0  0  0  0  0  0  0
  1  2  2  0
  2  3  2  0
  2  4  1  0
  4  5  1  0
  5  6  1  0
  6  7  1  0
  7  8  1  0
  8  9  1  0
  2 10  1  0
 10 11  1  0
 11 12  1  0
 12 13  2  0
 13 14  1  0
 14 15  2  0
 15 16  1  0
 16 17  2  0
 11 18  1  0
 18 19  1  0
 19 20  1  0
 20 21  1  0
  9  7  1  0
 21 11  1  0
 17 12  1  0
M  END
>  <ref_pdb>  (189) 
A3869a

>  <subsites>  (189) 
1 - Active Site

>  <HIPPO Compound ID>  (189) 
48546

>  <energy_score>  (189) 
-32.529046

>  <fragmenstein_mode>  (189) 
expansion

>  <scratch_subdir>  (189) 
/opt/xchem-fragalysis-2/maxwin/BulkDock/SCRATCH/511223/C52382-P229

>  <smiles>  (189) 
O=S(=O)(CCCC1CC1)NC1(c2cccnc2)CCCC1

>  <alias>  (189) 
C52382-P229

>  <ref_mols>  (189) 
A3869a,A0719a

>  <inspiration_score>  (189) 
None

>  <tags>  (189) 
BulkDock Fragalysis export,fragmenstein_placed,openbind_a71ev2a_c1_scaffolds,openbind_a71ev2a_c1_knitwork_pure

>  <fragmenstein_outcome>  (189) 
acceptable

>  <fragmenstein_error>  (189) 


>  <distance_score>  (189) 
0.99419

>  <inchikey>  (189) 
QNLCPYNLKHRGGT-UHFFFAOYSA-N

>  <name>  (189) 
C52382-P229

>  <HIPPO Pose ID>  (189) 
179967

>  <Energy>  (189) 
-1.898201

>  <exports>  (189) 
['/opt/xchem-fragalysis-2/maxwin/BulkDock/OUTPUTS/openbind_a71ev2a_c1_knitwork_pure_165VWF8.sdf', '/opt/xchem-fragalysis-2/maxwin/BulkDock/OUTPUTS/openbind_a71ev2a_c1_knitwork_pure_1B07PTU.sdf', '/opt/xchem-fragalysis-2/maxwin/BulkDock/OUTPUTS/openbind_a71ev2a_c1_knitwork_pure_1B07UWE.sdf', '/opt/xchem-fragalysis-2/maxwin/openbind-hippo/a71ev2a/openbind_a71ev2a_c1_scaffold_products.sdf', '/opt/xchem-fragalysis-2/maxwin/openbind-hippo/a71ev2a/cycle_01/bulkdock/openbind_a71ev2a_c1_scaffold_products.sdf', '/opt/xchem-fragalysis-2/maxwin/openbind-hippo/a71ev2a/cycle_01/bulkdock/openbind_a71ev2a_c1_scaffolds.sdf']

>  <fragmenstein_runtime>  (189) 
10.561583

$$$$
C45790-P228
     RDKit          3D

 18 20  0  0  0  0  0  0  0  0999 V2000
   10.2629   12.5585   24.7536 O   0  0  0  0  0  0  0  0  0  0  0  0
    9.4865   13.7120   24.3358 S   0  0  0  0  0  0  0  0  0  0  0  0
    9.2222   14.7773   25.2806 O   0  0  0  0  0  0  0  0  0  0  0  0
   10.3134   14.3348   22.8745 C   0  0  2  0  0  0  0  0  0  0  0  0
   11.4009   15.3403   23.2514 C   0  0  0  0  0  0  0  0  0  0  0  0
   12.1274   15.7747   21.9872 C   0  0  0  0  0  0  0  0  0  0  0  0
   11.1700   16.2930   20.9261 C   0  0  0  0  0  0  0  0  0  0  0  0
   10.1400   15.3090   20.6030 N   0  0  0  0  0  0  0  0  0  0  0  0
    9.3958   14.9233   21.8091 C   0  0  0  0  0  0  0  0  0  0  0  0
    7.9794   13.1970   23.7045 N   0  0  0  0  0  0  0  0  0  0  0  0
    6.8999   14.2626   23.6969 C   0  0  0  0  0  0  0  0  0  0  0  0
    6.0273   13.9953   24.9358 C   0  0  0  0  0  0  0  0  0  0  0  0
    6.2900   12.5453   25.1669 C   0  0  0  0  0  0  0  0  0  0  0  0
    5.5992   11.6639   25.9729 C   0  0  0  0  0  0  0  0  0  0  0  0
    6.0009   10.3288   25.9650 C   0  0  0  0  0  0  0  0  0  0  0  0
    7.1013    9.9117   25.1945 C   0  0  0  0  0  0  0  0  0  0  0  0
    7.8371   10.8187   24.4476 C   0  0  0  0  0  0  0  0  0  0  0  0
    7.4021   12.1234   24.4426 C   0  0  0  0  0  0  0  0  0  0  0  0
  1  2  2  0
  2  3  2  0
  4  2  1  1
  4  5  1  0
  5  6  1  0
  6  7  1  0
  7  8  1  0
  8  9  1  0
  2 10  1  0
 10 11  1  0
 11 12  1  0
 12 13  1  0
 13 14  2  0
 14 15  1  0
 15 16  2  0
 16 17  1  0
 17 18  2  0
  9  4  1  0
 18 10  1  0
 18 13  1  0
M  END
>  <ref_pdb>  (190) 
A3868a

>  <subsites>  (190) 
1 - Active Site

>  <HIPPO Compound ID>  (190) 
46492

>  <energy_score>  (190) 
-43.251701

>  <fragmenstein_mode>  (190) 
expansion

>  <scratch_subdir>  (190) 
/opt/xchem-fragalysis-2/maxwin/BulkDock/SCRATCH/511223/C45790-P228

>  <smiles>  (190) 
O=S(=O)([C@@H]1CCCNC1)N1CCc2ccccc21

>  <alias>  (190) 
C45790-P228

>  <ref_mols>  (190) 
A1778a,A3868a

>  <inspiration_score>  (190) 
None

>  <tags>  (190) 
BulkDock Fragalysis export,fragmenstein_placed,openbind_a71ev2a_c1_scaffolds,openbind_a71ev2a_c1_knitwork_pure

>  <fragmenstein_outcome>  (190) 
acceptable

>  <fragmenstein_error>  (190) 


>  <distance_score>  (190) 
0.834356

>  <inchikey>  (190) 
DPROWOJPCAHSLR-UHFFFAOYSA-N

>  <name>  (190) 
C45790-P228

>  <HIPPO Pose ID>  (190) 
180731

>  <Energy>  (190) 
0.092195

>  <exports>  (190) 
['/opt/xchem-fragalysis-2/maxwin/BulkDock/OUTPUTS/openbind_a71ev2a_c1_knitwork_pure_165VWF8.sdf', '/opt/xchem-fragalysis-2/maxwin/BulkDock/OUTPUTS/openbind_a71ev2a_c1_knitwork_pure_1B07PTU.sdf', '/opt/xchem-fragalysis-2/maxwin/BulkDock/OUTPUTS/openbind_a71ev2a_c1_knitwork_pure_1B07UWE.sdf', '/opt/xchem-fragalysis-2/maxwin/openbind-hippo/a71ev2a/openbind_a71ev2a_c1_scaffold_products.sdf', '/opt/xchem-fragalysis-2/maxwin/openbind-hippo/a71ev2a/cycle_01/bulkdock/openbind_a71ev2a_c1_scaffold_products.sdf', '/opt/xchem-fragalysis-2/maxwin/openbind-hippo/a71ev2a/cycle_01/bulkdock/openbind_a71ev2a_c1_scaffolds.sdf']

>  <fragmenstein_runtime>  (190) 
8.390512

$$$$
C45958-P228
     RDKit          3D

 22 24  0  0  0  0  0  0  0  0999 V2000
   11.5081   15.3484   18.7972 C   0  0  0  0  0  0  0  0  0  0  0  0
   10.3424   16.0292   19.9559 S   0  0  0  0  0  0  0  0  0  0  0  0
    9.0702   15.4229   19.7093 O   0  0  0  0  0  0  0  0  0  0  0  0
   10.4339   17.4605   20.0460 O   0  0  0  0  0  0  0  0  0  0  0  0
   10.8553   15.4083   21.4269 N   0  0  0  0  0  0  0  0  0  0  0  0
   11.9889   16.1378   22.0235 C   0  0  0  0  0  0  0  0  0  0  0  0
   12.5068   15.2887   23.1593 C   0  0  0  0  0  0  0  0  0  0  0  0
   11.4594   15.0486   24.2110 C   0  0  0  0  0  0  0  0  0  0  0  0
   10.3327   14.2923   23.5213 C   0  0  1  0  0  0  0  0  0  0  0  0
    9.2253   13.6913   24.7388 S   0  0  0  0  0  0  0  0  0  0  0  0
    9.9035   12.5303   25.2870 O   0  0  0  0  0  0  0  0  0  0  0  0
    8.8139   14.7671   25.6144 O   0  0  0  0  0  0  0  0  0  0  0  0
    7.8768   13.1902   23.8016 N   0  0  0  0  0  0  0  0  0  0  0  0
    6.7920   14.2456   23.6845 C   0  0  0  0  0  0  0  0  0  0  0  0
    5.8369   13.9931   24.8717 C   0  0  0  0  0  0  0  0  0  0  0  0
    6.1025   12.5502   25.1582 C   0  0  0  0  0  0  0  0  0  0  0  0
    5.4316   11.6916   26.0032 C   0  0  0  0  0  0  0  0  0  0  0  0
    5.8495   10.3595   26.0430 C   0  0  0  0  0  0  0  0  0  0  0  0
    6.9363    9.9207   25.2661 C   0  0  0  0  0  0  0  0  0  0  0  0
    7.6609   10.8064   24.4890 C   0  0  0  0  0  0  0  0  0  0  0  0
    7.2181   12.1078   24.4535 C   0  0  0  0  0  0  0  0  0  0  0  0
    9.7538   15.1360   22.4090 C   0  0  0  0  0  0  0  0  0  0  0  0
  1  2  1  0
  2  3  2  0
  2  4  2  0
  2  5  1  0
  5  6  1  0
  6  7  1  0
  7  8  1  0
  8  9  1  0
  9 10  1  1
 10 11  2  0
 10 12  2  0
 10 13  1  0
 13 14  1  0
 14 15  1  0
 15 16  1  0
 16 17  2  0
 17 18  1  0
 18 19  2  0
 19 20  1  0
 20 21  2  0
  9 22  1  0
 22  5  1  0
 21 13  1  0
 21 16  1  0
M  END
>  <ref_pdb>  (191) 
A3868a

>  <subsites>  (191) 
1 - Active Site

>  <HIPPO Compound ID>  (191) 
46960

>  <energy_score>  (191) 
-39.377429

>  <fragmenstein_mode>  (191) 
expansion

>  <scratch_subdir>  (191) 
/opt/xchem-fragalysis-2/maxwin/BulkDock/SCRATCH/511223/C45958-P228

>  <smiles>  (191) 
CS(=O)(=O)N1CCC[C@@H](S(=O)(=O)N2CCc3ccccc32)C1

>  <alias>  (191) 
C45958-P228

>  <ref_mols>  (191) 
A1778a,A3868a

>  <inspiration_score>  (191) 
None

>  <tags>  (191) 
BulkDock Fragalysis export,fragmenstein_placed,openbind_a71ev2a_c1_scaffolds,openbind_a71ev2a_c1_knitwork_pure

>  <fragmenstein_outcome>  (191) 
acceptable

>  <fragmenstein_error>  (191) 


>  <distance_score>  (191) 
0.948413

>  <inchikey>  (191) 
HZQGVMFRCXKOBL-UHFFFAOYSA-N

>  <name>  (191) 
C45958-P228

>  <HIPPO Pose ID>  (191) 
180736

>  <Energy>  (191) 
-54.486108

>  <exports>  (191) 
['/opt/xchem-fragalysis-2/maxwin/BulkDock/OUTPUTS/openbind_a71ev2a_c1_knitwork_pure_165VWF8.sdf', '/opt/xchem-fragalysis-2/maxwin/BulkDock/OUTPUTS/openbind_a71ev2a_c1_knitwork_pure_1B07PTU.sdf', '/opt/xchem-fragalysis-2/maxwin/BulkDock/OUTPUTS/openbind_a71ev2a_c1_knitwork_pure_1B07UWE.sdf', '/opt/xchem-fragalysis-2/maxwin/openbind-hippo/a71ev2a/openbind_a71ev2a_c1_scaffold_products.sdf', '/opt/xchem-fragalysis-2/maxwin/openbind-hippo/a71ev2a/cycle_01/bulkdock/openbind_a71ev2a_c1_scaffold_products.sdf', '/opt/xchem-fragalysis-2/maxwin/openbind-hippo/a71ev2a/cycle_01/bulkdock/openbind_a71ev2a_c1_scaffolds.sdf']

>  <fragmenstein_runtime>  (191) 
39.24923

$$$$
C45959-P228
     RDKit          3D

 22 24  0  0  0  0  0  0  0  0999 V2000
   12.0663   14.4878   19.6156 C   0  0  0  0  0  0  0  0  0  0  0  0
   11.1327   15.4100   19.4173 C   0  0  0  0  0  0  0  0  0  0  0  0
   11.1563   16.3050   17.9935 Cl  0  0  0  0  0  0  0  0  0  0  0  0
   10.1400   15.8772   20.4130 C   0  0  0  0  0  0  0  0  0  0  0  0
   10.4682   15.4671   21.7798 N   0  0  0  0  0  0  0  0  0  0  0  0
   11.7136   16.0853   22.2449 C   0  0  0  0  0  0  0  0  0  0  0  0
   12.0636   15.4012   23.5496 C   0  0  0  0  0  0  0  0  0  0  0  0
   11.0339   15.7849   24.5956 C   0  0  0  0  0  0  0  0  0  0  0  0
    9.6139   15.4541   24.1210 C   0  0  2  0  0  0  0  0  0  0  0  0
    9.2097   13.7814   24.6021 S   0  0  0  0  0  0  0  0  0  0  0  0
   10.2406   12.8615   24.1682 O   0  0  0  0  0  0  0  0  0  0  0  0
    8.9011   13.8778   26.0200 O   0  0  0  0  0  0  0  0  0  0  0  0
    7.7493   13.3791   23.8094 N   0  0  0  0  0  0  0  0  0  0  0  0
    6.6138   14.3669   23.9506 C   0  0  0  0  0  0  0  0  0  0  0  0
    5.7658   13.9146   25.1452 C   0  0  0  0  0  0  0  0  0  0  0  0
    6.1189   12.4707   25.2155 C   0  0  0  0  0  0  0  0  0  0  0  0
    5.5370   11.4944   25.9939 C   0  0  0  0  0  0  0  0  0  0  0  0
    6.0407   10.2005   25.8915 C   0  0  0  0  0  0  0  0  0  0  0  0
    7.1490    9.9152   25.0734 C   0  0  0  0  0  0  0  0  0  0  0  0
    7.7685   10.9200   24.3410 C   0  0  0  0  0  0  0  0  0  0  0  0
    7.2215   12.1837   24.4115 C   0  0  0  0  0  0  0  0  0  0  0  0
    9.3538   15.7852   22.6599 C   0  0  0  0  0  0  0  0  0  0  0  0
  1  2  2  0
  2  3  1  0
  2  4  1  0
  4  5  1  0
  5  6  1  0
  6  7  1  0
  7  8  1  0
  8  9  1  0
  9 10  1  6
 10 11  2  0
 10 12  2  0
 10 13  1  0
 13 14  1  0
 14 15  1  0
 15 16  1  0
 16 17  2  0
 17 18  1  0
 18 19  2  0
 19 20  1  0
 20 21  2  0
  9 22  1  0
 22  5  1  0
 21 13  1  0
 21 16  1  0
M  END
>  <ref_pdb>  (192) 
A3868a

>  <subsites>  (192) 
1 - Active Site

>  <HIPPO Compound ID>  (192) 
48055

>  <energy_score>  (192) 
-50.237767

>  <fragmenstein_mode>  (192) 
expansion

>  <scratch_subdir>  (192) 
/opt/xchem-fragalysis-2/maxwin/BulkDock/SCRATCH/511223/C45959-P228

>  <smiles>  (192) 
C=C(Cl)CN1CCC[C@H](S(=O)(=O)N2CCc3ccccc32)C1

>  <alias>  (192) 
C45959-P228

>  <ref_mols>  (192) 
A1778a,A3868a

>  <inspiration_score>  (192) 
None

>  <tags>  (192) 
BulkDock Fragalysis export,fragmenstein_placed,openbind_a71ev2a_c1_scaffolds,openbind_a71ev2a_c1_knitwork_pure

>  <fragmenstein_outcome>  (192) 
acceptable

>  <fragmenstein_error>  (192) 


>  <distance_score>  (192) 
0.987094

>  <inchikey>  (192) 
NBCOLWIEDFDBPP-UHFFFAOYSA-N

>  <name>  (192) 
C45959-P228

>  <HIPPO Pose ID>  (192) 
180737

>  <Energy>  (192) 
26.391985

>  <exports>  (192) 
['/opt/xchem-fragalysis-2/maxwin/BulkDock/OUTPUTS/openbind_a71ev2a_c1_knitwork_pure_165VWF8.sdf', '/opt/xchem-fragalysis-2/maxwin/BulkDock/OUTPUTS/openbind_a71ev2a_c1_knitwork_pure_1B07PTU.sdf', '/opt/xchem-fragalysis-2/maxwin/BulkDock/OUTPUTS/openbind_a71ev2a_c1_knitwork_pure_1B07UWE.sdf', '/opt/xchem-fragalysis-2/maxwin/openbind-hippo/a71ev2a/openbind_a71ev2a_c1_scaffold_products.sdf', '/opt/xchem-fragalysis-2/maxwin/openbind-hippo/a71ev2a/cycle_01/bulkdock/openbind_a71ev2a_c1_scaffold_products.sdf', '/opt/xchem-fragalysis-2/maxwin/openbind-hippo/a71ev2a/cycle_01/bulkdock/openbind_a71ev2a_c1_scaffolds.sdf']

>  <fragmenstein_runtime>  (192) 
21.085353

$$$$
C45966-P228
     RDKit          3D

 20 22  0  0  0  0  0  0  0  0999 V2000
   11.3827   15.1956   18.7395 C   0  0  0  0  0  0  0  0  0  0  0  0
   10.4804   15.7945   19.8062 C   0  0  0  0  0  0  0  0  0  0  0  0
   10.7412   15.2786   21.1655 N   0  0  0  0  0  0  0  0  0  0  0  0
   11.9781   15.8671   21.6841 C   0  0  0  0  0  0  0  0  0  0  0  0
   12.2359   15.3624   23.0917 C   0  0  0  0  0  0  0  0  0  0  0  0
   11.1654   15.8773   24.0270 C   0  0  0  0  0  0  0  0  0  0  0  0
    9.7841   15.4365   23.5595 C   0  0  2  0  0  0  0  0  0  0  0  0
    9.3635   13.8720   24.3432 S   0  0  0  0  0  0  0  0  0  0  0  0
   10.3851   12.8786   24.0802 O   0  0  0  0  0  0  0  0  0  0  0  0
    9.0296   14.1862   25.7244 O   0  0  0  0  0  0  0  0  0  0  0  0
    7.9074   13.3675   23.5930 N   0  0  0  0  0  0  0  0  0  0  0  0
    6.7648   14.3546   23.6496 C   0  0  0  0  0  0  0  0  0  0  0  0
    5.9107   13.9786   24.8696 C   0  0  0  0  0  0  0  0  0  0  0  0
    6.2672   12.5417   25.0403 C   0  0  0  0  0  0  0  0  0  0  0  0
    5.6597   11.6018   25.8474 C   0  0  0  0  0  0  0  0  0  0  0  0
    6.1583   10.3007   25.8173 C   0  0  0  0  0  0  0  0  0  0  0  0
    7.2840    9.9751   25.0393 C   0  0  0  0  0  0  0  0  0  0  0  0
    7.9290   10.9460   24.2805 C   0  0  0  0  0  0  0  0  0  0  0  0
    7.3888   12.2147   24.2797 C   0  0  0  0  0  0  0  0  0  0  0  0
    9.5829   15.5393   22.0392 C   0  0  0  0  0  0  0  0  0  0  0  0
  1  2  1  0
  2  3  1  0
  3  4  1  0
  4  5  1  0
  5  6  1  0
  6  7  1  0
  7  8  1  6
  8  9  2  0
  8 10  2  0
  8 11  1  0
 11 12  1  0
 12 13  1  0
 13 14  1  0
 14 15  2  0
 15 16  1  0
 16 17  2  0
 17 18  1  0
 18 19  2  0
  7 20  1  0
 20  3  1  0
 19 11  1  0
 19 14  1  0
M  END
>  <ref_pdb>  (193) 
A3868a

>  <subsites>  (193) 
1 - Active Site

>  <HIPPO Compound ID>  (193) 
48630

>  <energy_score>  (193) 
-39.135946

>  <fragmenstein_mode>  (193) 
expansion

>  <scratch_subdir>  (193) 
/opt/xchem-fragalysis-2/maxwin/BulkDock/SCRATCH/511223/C45966-P228

>  <smiles>  (193) 
CCN1CCC[C@H](S(=O)(=O)N2CCc3ccccc32)C1

>  <alias>  (193) 
C45966-P228

>  <ref_mols>  (193) 
A1778a,A3868a

>  <inspiration_score>  (193) 
None

>  <tags>  (193) 
BulkDock Fragalysis export,fragmenstein_placed,openbind_a71ev2a_c1_scaffolds,openbind_a71ev2a_c1_knitwork_pure

>  <fragmenstein_outcome>  (193) 
acceptable

>  <fragmenstein_error>  (193) 


>  <distance_score>  (193) 
0.778461

>  <inchikey>  (193) 
ATBDAIGFBNCITP-UHFFFAOYSA-N

>  <name>  (193) 
C45966-P228

>  <HIPPO Pose ID>  (193) 
180740

>  <Energy>  (193) 
10.388353

>  <exports>  (193) 
['/opt/xchem-fragalysis-2/maxwin/BulkDock/OUTPUTS/openbind_a71ev2a_c1_knitwork_pure_165VWF8.sdf', '/opt/xchem-fragalysis-2/maxwin/BulkDock/OUTPUTS/openbind_a71ev2a_c1_knitwork_pure_1B07PTU.sdf', '/opt/xchem-fragalysis-2/maxwin/BulkDock/OUTPUTS/openbind_a71ev2a_c1_knitwork_pure_1B07UWE.sdf', '/opt/xchem-fragalysis-2/maxwin/openbind-hippo/a71ev2a/openbind_a71ev2a_c1_scaffold_products.sdf', '/opt/xchem-fragalysis-2/maxwin/openbind-hippo/a71ev2a/cycle_01/bulkdock/openbind_a71ev2a_c1_scaffold_products.sdf', '/opt/xchem-fragalysis-2/maxwin/openbind-hippo/a71ev2a/cycle_01/bulkdock/openbind_a71ev2a_c1_scaffolds.sdf']

>  <fragmenstein_runtime>  (193) 
20.263808

$$$$
C45979-P228
     RDKit          3D

 23 25  0  0  0  0  0  0  0  0999 V2000
   11.3720   14.6438   18.5138 C   0  0  0  0  0  0  0  0  0  0  0  0
   10.6385   15.8469   18.9741 C   0  0  0  0  0  0  0  0  0  0  0  0
   11.5467   16.8171   19.1595 F   0  0  0  0  0  0  0  0  0  0  0  0
    9.8182   16.2939   17.9887 F   0  0  0  0  0  0  0  0  0  0  0  0
    9.8202   15.7687   20.2430 C   0  0  0  0  0  0  0  0  0  0  0  0
   10.3781   15.2908   21.5261 N   0  0  0  0  0  0  0  0  0  0  0  0
   11.6984   15.8552   21.8089 C   0  0  0  0  0  0  0  0  0  0  0  0
   12.1706   15.3284   23.1572 C   0  0  0  0  0  0  0  0  0  0  0  0
   11.2551   15.7794   24.2814 C   0  0  0  0  0  0  0  0  0  0  0  0
    9.8000   15.4291   24.0024 C   0  0  2  0  0  0  0  0  0  0  0  0
    9.3690   13.8312   24.6750 S   0  0  0  0  0  0  0  0  0  0  0  0
   10.3698   12.8482   24.3143 O   0  0  0  0  0  0  0  0  0  0  0  0
    9.0678   14.0619   26.0775 O   0  0  0  0  0  0  0  0  0  0  0  0
    7.8870   13.4169   23.9208 N   0  0  0  0  0  0  0  0  0  0  0  0
    6.7608   14.4128   24.0900 C   0  0  0  0  0  0  0  0  0  0  0  0
    5.8940   13.9206   25.2539 C   0  0  0  0  0  0  0  0  0  0  0  0
    6.2346   12.4725   25.2707 C   0  0  0  0  0  0  0  0  0  0  0  0
    5.6145   11.4680   25.9802 C   0  0  0  0  0  0  0  0  0  0  0  0
    6.1058   10.1743   25.8307 C   0  0  0  0  0  0  0  0  0  0  0  0
    7.2355    9.9128   25.0341 C   0  0  0  0  0  0  0  0  0  0  0  0
    7.8889   10.9435   24.3691 C   0  0  0  0  0  0  0  0  0  0  0  0
    7.3591   12.2101   24.4894 C   0  0  0  0  0  0  0  0  0  0  0  0
    9.4027   15.6699   22.5578 C   0  0  0  0  0  0  0  0  0  0  0  0
  1  2  1  0
  2  3  1  0
  2  4  1  0
  2  5  1  0
  5  6  1  0
  6  7  1  0
  7  8  1  0
  8  9  1  0
  9 10  1  0
 10 11  1  6
 11 12  2  0
 11 13  2  0
 11 14  1  0
 14 15  1  0
 15 16  1  0
 16 17  1  0
 17 18  2  0
 18 19  1  0
 19 20  2  0
 20 21  1  0
 21 22  2  0
 10 23  1  0
 23  6  1  0
 22 14  1  0
 22 17  1  0
M  END
>  <ref_pdb>  (194) 
A3868a

>  <subsites>  (194) 
1 - Active Site

>  <HIPPO Compound ID>  (194) 
41168

>  <energy_score>  (194) 
-51.911721

>  <fragmenstein_mode>  (194) 
expansion

>  <scratch_subdir>  (194) 
/opt/xchem-fragalysis-2/maxwin/BulkDock/SCRATCH/511223/C45979-P228

>  <smiles>  (194) 
CC(F)(F)CN1CCC[C@H](S(=O)(=O)N2CCc3ccccc32)C1

>  <alias>  (194) 
C45979-P228

>  <ref_mols>  (194) 
A1778a,A3868a

>  <inspiration_score>  (194) 
None

>  <tags>  (194) 
BulkDock Fragalysis export,fragmenstein_placed,openbind_a71ev2a_c1_scaffolds,openbind_a71ev2a_c1_knitwork_pure

>  <fragmenstein_outcome>  (194) 
acceptable

>  <fragmenstein_error>  (194) 


>  <distance_score>  (194) 
0.979673

>  <inchikey>  (194) 
RBXTZVLYSUIEGL-UHFFFAOYSA-N

>  <name>  (194) 
C45979-P228

>  <HIPPO Pose ID>  (194) 
180750

>  <Energy>  (194) 
58.564772

>  <exports>  (194) 
['/opt/xchem-fragalysis-2/maxwin/BulkDock/OUTPUTS/openbind_a71ev2a_c1_knitwork_pure_165VWF8.sdf', '/opt/xchem-fragalysis-2/maxwin/BulkDock/OUTPUTS/openbind_a71ev2a_c1_knitwork_pure_1B07PTU.sdf', '/opt/xchem-fragalysis-2/maxwin/BulkDock/OUTPUTS/openbind_a71ev2a_c1_knitwork_pure_1B07UWE.sdf', '/opt/xchem-fragalysis-2/maxwin/openbind-hippo/a71ev2a/openbind_a71ev2a_c1_scaffold_products.sdf', '/opt/xchem-fragalysis-2/maxwin/openbind-hippo/a71ev2a/cycle_01/bulkdock/openbind_a71ev2a_c1_scaffold_products.sdf', '/opt/xchem-fragalysis-2/maxwin/openbind-hippo/a71ev2a/cycle_01/bulkdock/openbind_a71ev2a_c1_scaffolds.sdf']

>  <fragmenstein_runtime>  (194) 
21.341799

$$$$
C52374-P401
     RDKit          3D

 23 25  0  0  0  0  0  0  0  0999 V2000
    7.1537   10.1540   25.5618 C   0  0  0  0  0  0  0  0  0  0  0  0
    6.2452   10.7153   26.4550 C   0  0  0  0  0  0  0  0  0  0  0  0
    6.0742   12.0976   26.4887 C   0  0  0  0  0  0  0  0  0  0  0  0
    6.8032   12.9233   25.6205 C   0  0  0  0  0  0  0  0  0  0  0  0
    6.5841   14.4155   25.6267 C   0  0  0  0  0  0  0  0  0  0  0  0
    7.0720   15.0223   26.8250 O   0  0  0  0  0  0  0  0  0  0  0  0
    8.4927   15.1447   26.8519 C   0  0  0  0  0  0  0  0  0  0  0  0
    8.9155   15.7903   28.1700 C   0  0  0  0  0  0  0  0  0  0  0  0
    8.7849   17.3238   28.1455 C   0  0  0  0  0  0  0  0  0  0  0  0
    7.9900   17.8486   29.2676 N   0  0  0  0  0  0  0  0  0  0  0  0
    6.5431   17.6660   29.0629 C   0  0  0  0  0  0  0  0  0  0  0  0
    5.9543   18.5583   27.9693 C   0  0  0  0  0  0  0  0  0  0  0  0
    6.2826   20.0300   28.1954 C   0  0  0  0  0  0  0  0  0  0  0  0
    7.7859   20.2693   28.4495 C   0  0  1  0  0  0  0  0  0  0  0  0
    7.9676   21.7056   28.7644 N   0  0  0  0  0  0  0  0  0  0  0  0
    7.8004   22.5515   27.5530 C   0  0  0  0  0  0  0  0  0  0  0  0
    8.8139   23.7087   27.4151 C   0  0  0  0  0  0  0  0  0  0  0  0
   10.2153   23.2922   27.5497 N   0  0  0  0  0  0  0  0  0  0  0  0
   10.3944   22.2723   28.5901 C   0  0  0  0  0  0  0  0  0  0  0  0
    9.1796   22.0789   29.5017 C   0  0  0  0  0  0  0  0  0  0  0  0
    8.2720   19.2713   29.5409 C   0  0  0  0  0  0  0  0  0  0  0  0
    7.7310   12.3439   24.7419 C   0  0  0  0  0  0  0  0  0  0  0  0
    7.9085   10.9624   24.7165 C   0  0  0  0  0  0  0  0  0  0  0  0
  1  2  2  0
  2  3  1  0
  3  4  2  0
  4  5  1  0
  5  6  1  0
  6  7  1  0
  7  8  1  0
  8  9  1  0
  9 10  1  0
 10 11  1  0
 11 12  1  0
 12 13  1  0
 13 14  1  0
 14 15  1  1
 15 16  1  0
 16 17  1  0
 17 18  1  0
 18 19  1  0
 19 20  1  0
 14 21  1  0
  4 22  1  0
 22 23  2  0
 23  1  1  0
 21 10  1  0
 20 15  1  0
M  END
>  <ref_pdb>  (195) 
A4554a

>  <subsites>  (195) 
1 - Active Site,4 - A0525/A/246/1

>  <HIPPO Compound ID>  (195) 
48056

>  <energy_score>  (195) 
-31.59116

>  <fragmenstein_mode>  (195) 
expansion

>  <scratch_subdir>  (195) 
/opt/xchem-fragalysis-2/maxwin/BulkDock/SCRATCH/511223/C52374-P401

>  <smiles>  (195) 
c1ccc(COCCCN2CCC[C@@H](N3CCNCC3)C2)cc1

>  <alias>  (195) 
C52374-P401

>  <ref_mols>  (195) 
A4554a,A0469a

>  <inspiration_score>  (195) 
None

>  <tags>  (195) 
BulkDock Fragalysis export,fragmenstein_placed,openbind_a71ev2a_c1_scaffolds,openbind_a71ev2a_c1_knitwork_pure

>  <fragmenstein_outcome>  (195) 
acceptable

>  <fragmenstein_error>  (195) 


>  <distance_score>  (195) 
0.755446

>  <inchikey>  (195) 
SXJFQBSZDASCMN-UHFFFAOYSA-N

>  <name>  (195) 
C52374-P401

>  <HIPPO Pose ID>  (195) 
181505

>  <Energy>  (195) 
138.163643

>  <exports>  (195) 
['/opt/xchem-fragalysis-2/maxwin/BulkDock/OUTPUTS/openbind_a71ev2a_c1_knitwork_pure_165VWF8.sdf', '/opt/xchem-fragalysis-2/maxwin/BulkDock/OUTPUTS/openbind_a71ev2a_c1_knitwork_pure_1B07PTU.sdf', '/opt/xchem-fragalysis-2/maxwin/BulkDock/OUTPUTS/openbind_a71ev2a_c1_knitwork_pure_1B07UWE.sdf', '/opt/xchem-fragalysis-2/maxwin/openbind-hippo/a71ev2a/openbind_a71ev2a_c1_scaffold_products.sdf', '/opt/xchem-fragalysis-2/maxwin/openbind-hippo/a71ev2a/cycle_01/bulkdock/openbind_a71ev2a_c1_scaffold_products.sdf', '/opt/xchem-fragalysis-2/maxwin/openbind-hippo/a71ev2a/cycle_01/bulkdock/openbind_a71ev2a_c1_scaffolds.sdf']

>  <fragmenstein_runtime>  (195) 
9.265741

$$$$
C119628-P106
     RDKit          3D

 23 25  0  0  0  0  0  0  0  0999 V2000
    7.6770   14.2316   22.0989 C   0  0  0  0  0  0  0  0  0  0  0  0
    8.7857   13.5347   22.8622 C   0  0  0  0  0  0  0  0  0  0  0  0
   10.2866   13.8205   22.6157 C   0  0  2  0  0  0  0  0  0  0  0  0
   10.6443   14.3171   21.2151 C   0  0  0  0  0  0  0  0  0  0  0  0
    9.9233   15.5307   20.9800 N   0  0  0  0  0  0  0  0  0  0  0  0
   10.1427   16.1470   19.7100 C   0  0  0  0  0  0  0  0  0  0  0  0
    9.4887   17.4945   19.9754 C   0  0  0  0  0  0  0  0  0  0  0  0
    9.3459   17.6728   21.4550 C   0  0  0  0  0  0  0  0  0  0  0  0
   10.1566   16.5436   21.9755 C   0  0  0  0  0  0  0  0  0  0  0  0
   11.1162   12.6524   22.9461 N   0  0  0  0  0  0  0  0  0  0  0  0
   11.1585   12.1804   24.5466 S   0  0  0  0  0  0  0  0  0  0  0  0
   11.2208   13.3322   25.4125 O   0  0  0  0  0  0  0  0  0  0  0  0
   12.1573   11.1365   24.6217 O   0  0  0  0  0  0  0  0  0  0  0  0
    9.6740   11.3685   24.8243 C   0  0  0  0  0  0  0  0  0  0  0  0
    9.4094   10.1395   24.2627 C   0  0  0  0  0  0  0  0  0  0  0  0
    8.1377    9.8230   24.5978 N   0  0  0  0  0  0  0  0  0  0  0  0
    7.5488   10.7970   25.3473 C   0  0  0  0  0  0  0  0  0  0  0  0
    6.2754   10.8404   25.9319 C   0  0  0  0  0  0  0  0  0  0  0  0
    5.9077   11.9525   26.6695 C   0  0  0  0  0  0  0  0  0  0  0  0
    6.8053   12.9889   26.8127 C   0  0  0  0  0  0  0  0  0  0  0  0
    8.0689   12.9398   26.1927 C   0  0  0  0  0  0  0  0  0  0  0  0
    8.9366   13.9398   26.3847 F   0  0  0  0  0  0  0  0  0  0  0  0
    8.4870   11.8127   25.4758 C   0  0  0  0  0  0  0  0  0  0  0  0
  1  2  1  0
  3  2  1  6
  3  4  1  0
  4  5  1  0
  5  6  1  0
  6  7  1  0
  7  8  1  0
  8  9  1  0
  3 10  1  0
 10 11  1  0
 11 12  2  0
 11 13  2  0
 11 14  1  0
 14 15  2  0
 15 16  1  0
 16 17  1  0
 17 18  2  0
 18 19  1  0
 19 20  2  0
 20 21  1  0
 21 22  1  0
 21 23  2  0
  9  5  1  0
 23 14  1  0
 23 17  1  0
M  END
>  <ref_pdb>  (196) 
A1140a

>  <subsites>  (196) 
1 - Active Site

>  <HIPPO Compound ID>  (196) 
119620

>  <energy_score>  (196) 
-26.481546

>  <fragmenstein_mode>  (196) 
expansion

>  <scratch_subdir>  (196) 
/opt/xchem-fragalysis-2/maxwin/BulkDock/SCRATCH/511223/C119628-P106

>  <smiles>  (196) 
CC[C@H](CN1CCCC1)NS(=O)(=O)c1c[nH]c2cccc(F)c12

>  <alias>  (196) 
C119628-P106

>  <ref_mols>  (196) 
A1140a,A3568a

>  <inspiration_score>  (196) 
None

>  <tags>  (196) 
BulkDock Fragalysis export,fragmenstein_placed,openbind_a71ev2a_c1_scaffolds,openbind_a71ev2a_c1_knitwork_pure

>  <fragmenstein_outcome>  (196) 
acceptable

>  <fragmenstein_error>  (196) 


>  <distance_score>  (196) 
0.922237

>  <inchikey>  (196) 
VYESCFQDWYETRW-UHFFFAOYSA-N

>  <name>  (196) 
C119628-P106

>  <HIPPO Pose ID>  (196) 
182367

>  <Energy>  (196) 
25.95291

>  <exports>  (196) 
['/opt/xchem-fragalysis-2/maxwin/BulkDock/OUTPUTS/openbind_a71ev2a_c1_knitwork_pure_165VWF8.sdf', '/opt/xchem-fragalysis-2/maxwin/BulkDock/OUTPUTS/openbind_a71ev2a_c1_knitwork_pure_1B07PTU.sdf', '/opt/xchem-fragalysis-2/maxwin/BulkDock/OUTPUTS/openbind_a71ev2a_c1_knitwork_pure_1B07UWE.sdf', '/opt/xchem-fragalysis-2/maxwin/openbind-hippo/a71ev2a/openbind_a71ev2a_c1_scaffold_products.sdf', '/opt/xchem-fragalysis-2/maxwin/openbind-hippo/a71ev2a/cycle_01/bulkdock/openbind_a71ev2a_c1_scaffold_products.sdf', '/opt/xchem-fragalysis-2/maxwin/openbind-hippo/a71ev2a/cycle_01/bulkdock/openbind_a71ev2a_c1_scaffolds.sdf']

>  <fragmenstein_runtime>  (196) 
3.92079

$$$$
C55786-P322
     RDKit          3D

 22 24  0  0  0  0  0  0  0  0999 V2000
   -2.1382   13.8264   17.8755 O   0  0  0  0  0  0  0  0  0  0  0  0
   -1.2217   14.4995   17.6035 C   0  0  0  0  0  0  0  0  0  0  0  0
   -1.2699   15.4810   16.4412 C   0  0  0  0  0  0  0  0  0  0  0  0
   -1.2690   14.8670   15.1226 N   0  0  0  0  0  0  0  0  0  0  0  0
   -1.6108   13.5978   14.7584 C   0  0  0  0  0  0  0  0  0  0  0  0
   -1.6849   13.6042   13.3845 C   0  0  0  0  0  0  0  0  0  0  0  0
   -1.3350   14.9186   12.9914 C   0  0  0  0  0  0  0  0  0  0  0  0
   -1.2820   15.5349   11.6167 C   0  0  2  0  0  0  0  0  0  0  0  0
   -2.1529   16.8066   11.5266 C   0  0  0  0  0  0  0  0  0  0  0  0
   -2.5860   17.1270   10.0936 C   0  0  0  0  0  0  0  0  0  0  0  0
   -1.5853   16.5985    9.0719 C   0  0  0  0  0  0  0  0  0  0  0  0
   -1.4180   15.1424    9.1349 N   0  0  0  0  0  0  0  0  0  0  0  0
   -1.6591   14.5804   10.4721 C   0  0  0  0  0  0  0  0  0  0  0  0
   -1.0002   15.6631   14.0568 N   0  0  0  0  0  0  0  0  0  0  0  0
    0.1704   14.6273   18.2832 N   0  0  0  0  0  0  0  0  0  0  0  0
    0.6823   14.0242   19.4891 C   0  0  0  0  0  0  0  0  0  0  0  0
    1.6071   12.8473   19.1782 C   0  0  0  0  0  0  0  0  0  0  0  0
    2.9080   13.3509   18.5494 C   0  0  0  0  0  0  0  0  0  0  0  0
    3.8789   12.2095   18.3492 C   0  0  0  0  0  0  0  0  0  0  0  0
    4.1422   11.5338   19.5799 O   0  0  0  0  0  0  0  0  0  0  0  0
    2.9586   10.9490   20.1173 C   0  0  0  0  0  0  0  0  0  0  0  0
    1.9320   12.0293   20.4370 C   0  0  0  0  0  0  0  0  0  0  0  0
  1  2  2  0
  2  3  1  0
  3  4  1  0
  4  5  1  0
  5  6  2  0
  6  7  1  0
  8  7  1  1
  8  9  1  0
  9 10  1  0
 10 11  1  0
 11 12  1  0
 12 13  1  0
  7 14  2  0
  2 15  1  0
 15 16  1  0
 16 17  1  0
 17 18  1  0
 18 19  1  0
 19 20  1  0
 20 21  1  0
 21 22  1  0
 14  4  1  0
 22 17  1  0
 13  8  1  0
M  END
>  <ref_pdb>  (197) 
A4351a

>  <subsites>  (197) 
1 - Active Site

>  <HIPPO Compound ID>  (197) 
119723

>  <energy_score>  (197) 
-23.002052

>  <fragmenstein_mode>  (197) 
expansion

>  <scratch_subdir>  (197) 
/opt/xchem-fragalysis-2/maxwin/BulkDock/SCRATCH/511223/C55786-P322

>  <smiles>  (197) 
O=C(Cn1ccc([C@@H]2CCCNC2)n1)NCC1CCOCC1

>  <alias>  (197) 
C55786-P322

>  <ref_mols>  (197) 
A0473a,A4351a

>  <inspiration_score>  (197) 
None

>  <tags>  (197) 
BulkDock Fragalysis export,fragmenstein_placed,openbind_a71ev2a_c1_scaffolds,openbind_a71ev2a_c1_knitwork_pure

>  <fragmenstein_outcome>  (197) 
acceptable

>  <fragmenstein_error>  (197) 


>  <distance_score>  (197) 
0.986219

>  <inchikey>  (197) 
BUFNXCVHZNVGON-UHFFFAOYSA-N

>  <name>  (197) 
C55786-P322

>  <HIPPO Pose ID>  (197) 
182914

>  <Energy>  (197) 
50.359722

>  <exports>  (197) 
['/opt/xchem-fragalysis-2/maxwin/BulkDock/OUTPUTS/openbind_a71ev2a_c1_knitwork_pure_165VWF8.sdf', '/opt/xchem-fragalysis-2/maxwin/BulkDock/OUTPUTS/openbind_a71ev2a_c1_knitwork_pure_1B07PTU.sdf', '/opt/xchem-fragalysis-2/maxwin/BulkDock/OUTPUTS/openbind_a71ev2a_c1_knitwork_pure_1B07UWE.sdf', '/opt/xchem-fragalysis-2/maxwin/openbind-hippo/a71ev2a/openbind_a71ev2a_c1_scaffold_products.sdf', '/opt/xchem-fragalysis-2/maxwin/openbind-hippo/a71ev2a/cycle_01/bulkdock/openbind_a71ev2a_c1_scaffold_products.sdf', '/opt/xchem-fragalysis-2/maxwin/openbind-hippo/a71ev2a/cycle_01/bulkdock/openbind_a71ev2a_c1_scaffolds.sdf']

>  <fragmenstein_runtime>  (197) 
9.731274

$$$$
C63883-P224
     RDKit          3D

 14 15  0  0  0  0  0  0  0  0999 V2000
    8.9739   15.3440   27.8745 Cl  0  0  0  0  0  0  0  0  0  0  0  0
   10.0514   15.2958   26.5258 C   0  0  0  0  0  0  0  0  0  0  0  0
   11.1085   16.1793   26.4819 C   0  0  0  0  0  0  0  0  0  0  0  0
   11.9964   16.2179   25.4680 N   0  0  0  0  0  0  0  0  0  0  0  0
   11.8176   15.3552   24.4485 C   0  0  0  0  0  0  0  0  0  0  0  0
   10.8086   14.4169   24.4212 C   0  0  0  0  0  0  0  0  0  0  0  0
    9.8942   14.3722   25.4769 C   0  0  0  0  0  0  0  0  0  0  0  0
    8.9524   13.3629   25.5943 N   0  0  0  0  0  0  0  0  0  0  0  0
    8.6948   12.3814   24.5645 C   0  0  0  0  0  0  0  0  0  0  0  0
    7.9257   11.2408   25.0984 C   0  0  0  0  0  0  0  0  0  0  0  0
    7.9998    9.8800   24.9438 C   0  0  0  0  0  0  0  0  0  0  0  0
    6.9994    9.2824   25.6672 N   0  0  0  0  0  0  0  0  0  0  0  0
    6.3928   10.2879   26.2575 C   0  0  0  0  0  0  0  0  0  0  0  0
    6.9028   11.5132   25.9695 O   0  0  0  0  0  0  0  0  0  0  0  0
  1  2  1  0
  2  3  2  0
  3  4  1  0
  4  5  2  0
  5  6  1  0
  6  7  2  0
  7  8  1  0
  8  9  1  0
  9 10  1  0
 10 11  2  0
 11 12  1  0
 12 13  2  0
 13 14  1  0
  7  2  1  0
 14 10  1  0
M  END
>  <ref_pdb>  (198) 
A3849a

>  <subsites>  (198) 
1 - Active Site

>  <HIPPO Compound ID>  (198) 
66135

>  <energy_score>  (198) 
-14.678094

>  <fragmenstein_mode>  (198) 
expansion

>  <scratch_subdir>  (198) 
/opt/xchem-fragalysis-2/maxwin/BulkDock/SCRATCH/511224/C63883-P224

>  <smiles>  (198) 
Clc1cnccc1NCc1cnco1

>  <alias>  (198) 
C63883-P224

>  <ref_mols>  (198) 
A3849a,A3623a

>  <inspiration_score>  (198) 
None

>  <tags>  (198) 
BulkDock Fragalysis export,fragmenstein_placed,openbind_a71ev2a_c1_scaffolds,openbind_a71ev2a_c1_knitwork_pure

>  <fragmenstein_outcome>  (198) 
acceptable

>  <fragmenstein_error>  (198) 


>  <distance_score>  (198) 
0.929694

>  <inchikey>  (198) 
HVAHNKDDJIROCW-UHFFFAOYSA-N

>  <name>  (198) 
C63883-P224

>  <HIPPO Pose ID>  (198) 
185177

>  <Energy>  (198) 
52.655239

>  <exports>  (198) 
['/opt/xchem-fragalysis-2/maxwin/BulkDock/OUTPUTS/openbind_a71ev2a_c1_knitwork_pure_165VWF8.sdf', '/opt/xchem-fragalysis-2/maxwin/BulkDock/OUTPUTS/openbind_a71ev2a_c1_knitwork_pure_1B07PTU.sdf', '/opt/xchem-fragalysis-2/maxwin/BulkDock/OUTPUTS/openbind_a71ev2a_c1_knitwork_pure_1B07UWE.sdf', '/opt/xchem-fragalysis-2/maxwin/openbind-hippo/a71ev2a/openbind_a71ev2a_c1_scaffold_products.sdf', '/opt/xchem-fragalysis-2/maxwin/openbind-hippo/a71ev2a/cycle_01/bulkdock/openbind_a71ev2a_c1_scaffold_products.sdf', '/opt/xchem-fragalysis-2/maxwin/openbind-hippo/a71ev2a/cycle_01/bulkdock/openbind_a71ev2a_c1_scaffolds.sdf']

>  <fragmenstein_runtime>  (198) 
0.995376

$$$$
C105131-P135
     RDKit          3D

 20 22  0  0  0  0  0  0  0  0999 V2000
   14.9665   18.2985   18.6642 O   0  0  0  0  0  0  0  0  0  0  0  0
   14.2326   17.4233   19.1226 C   0  0  0  0  0  0  0  0  0  0  0  0
   13.5149   16.4311   18.2369 C   0  0  0  0  0  0  0  0  0  0  0  0
   13.1122   15.1286   18.9196 C   0  0  0  0  0  0  0  0  0  0  0  0
   12.5104   15.3784   20.2778 C   0  0  1  0  0  0  0  0  0  0  0  0
   12.0256   14.2179   21.0106 N   0  0  0  0  0  0  0  0  0  0  0  0
   11.1419   14.1312   22.2994 C   0  0  0  0  0  0  0  0  0  0  0  0
   10.7524   14.9583   22.9820 O   0  0  0  0  0  0  0  0  0  0  0  0
   10.9450   12.5881   22.3761 N   0  0  0  0  0  0  0  0  0  0  0  0
   10.1719   11.8233   23.2375 C   0  0  0  0  0  0  0  0  0  0  0  0
   10.0903   10.4610   23.0302 C   0  0  0  0  0  0  0  0  0  0  0  0
    9.2335    9.7172   23.8225 C   0  0  0  0  0  0  0  0  0  0  0  0
    8.4609   10.3612   24.7765 C   0  0  0  0  0  0  0  0  0  0  0  0
    8.5828   11.7319   24.9573 C   0  0  0  0  0  0  0  0  0  0  0  0
    7.7335   12.4970   25.9419 C   0  0  0  0  0  0  0  0  0  0  0  0
    6.8557   11.8650   26.9988 C   0  0  0  0  0  0  0  0  0  0  0  0
    6.2288   12.4756   25.7863 C   0  0  0  0  0  0  0  0  0  0  0  0
    9.4570   12.4417   24.2009 N   0  0  0  0  0  0  0  0  0  0  0  0
   13.3101   16.3228   21.1594 C   0  0  0  0  0  0  0  0  0  0  0  0
   13.9643   17.4026   20.4549 N   0  0  0  0  0  0  0  0  0  0  0  0
  1  2  2  0
  2  3  1  0
  3  4  1  0
  4  5  1  0
  5  6  1  1
  6  7  1  0
  7  8  2  0
  7  9  1  0
  9 10  1  0
 10 11  2  0
 11 12  1  0
 12 13  2  0
 13 14  1  0
 14 15  1  0
 15 16  1  0
 16 17  1  0
 14 18  2  0
  5 19  1  0
 19 20  1  0
 20  2  1  0
 18 10  1  0
 17 15  1  0
M  END
>  <ref_pdb>  (199) 
A2629a

>  <subsites>  (199) 
1 - Active Site

>  <HIPPO Compound ID>  (199) 
120944

>  <energy_score>  (199) 
-11.821528

>  <fragmenstein_mode>  (199) 
expansion

>  <scratch_subdir>  (199) 
/opt/xchem-fragalysis-2/maxwin/BulkDock/SCRATCH/511224/C105131-P135

>  <smiles>  (199) 
O=C1CC[C@@H](NC(=O)Nc2cccc(C3CC3)n2)CN1

>  <alias>  (199) 
C105131-P135

>  <ref_mols>  (199) 
A4029a,A2629a

>  <inspiration_score>  (199) 
None

>  <tags>  (199) 
BulkDock Fragalysis export,fragmenstein_placed,openbind_a71ev2a_c1_scaffolds,openbind_a71ev2a_c1_knitwork_pure

>  <fragmenstein_outcome>  (199) 
acceptable

>  <fragmenstein_error>  (199) 


>  <distance_score>  (199) 
0.921568

>  <inchikey>  (199) 
TVIVKSZHVBUWMY-UHFFFAOYSA-N

>  <name>  (199) 
C105131-P135

>  <HIPPO Pose ID>  (199) 
185672

>  <Energy>  (199) 
-37.184987

>  <exports>  (199) 
['/opt/xchem-fragalysis-2/maxwin/BulkDock/OUTPUTS/openbind_a71ev2a_c1_knitwork_pure_165VWF8.sdf', '/opt/xchem-fragalysis-2/maxwin/BulkDock/OUTPUTS/openbind_a71ev2a_c1_knitwork_pure_1B07PTU.sdf', '/opt/xchem-fragalysis-2/maxwin/BulkDock/OUTPUTS/openbind_a71ev2a_c1_knitwork_pure_1B07UWE.sdf', '/opt/xchem-fragalysis-2/maxwin/openbind-hippo/a71ev2a/openbind_a71ev2a_c1_scaffold_products.sdf', '/opt/xchem-fragalysis-2/maxwin/openbind-hippo/a71ev2a/cycle_01/bulkdock/openbind_a71ev2a_c1_scaffold_products.sdf', '/opt/xchem-fragalysis-2/maxwin/openbind-hippo/a71ev2a/cycle_01/bulkdock/openbind_a71ev2a_c1_scaffolds.sdf']

>  <fragmenstein_runtime>  (199) 
3.7957

$$$$
C51401-P213
     RDKit          3D

 21 21  0  0  0  0  0  0  0  0999 V2000
    9.1886    9.1063   23.9486 C   0  0  0  0  0  0  0  0  0  0  0  0
    8.0093    9.3806   24.7507 O   0  0  0  0  0  0  0  0  0  0  0  0
    7.7750   10.7260   24.8980 C   0  0  0  0  0  0  0  0  0  0  0  0
    8.3132   11.6397   23.9869 C   0  0  0  0  0  0  0  0  0  0  0  0
    8.2248   12.9946   24.2465 C   0  0  0  0  0  0  0  0  0  0  0  0
    8.7869   13.9296   23.3324 N   0  0  0  0  0  0  0  0  0  0  0  0
    9.6526   14.6808   23.7877 O   0  0  0  0  0  0  0  0  0  0  0  0
    8.3662   13.8874   22.1700 O   0  0  0  0  0  0  0  0  0  0  0  0
    7.6482   13.4440   25.3974 C   0  0  0  0  0  0  0  0  0  0  0  0
    7.0878   12.5922   26.2663 N   0  0  0  0  0  0  0  0  0  0  0  0
    7.0809   11.2621   25.9905 C   0  0  0  0  0  0  0  0  0  0  0  0
    6.1638   10.6164   26.8043 N   0  0  0  0  0  0  0  0  0  0  0  0
    5.6679   10.9617   28.2415 C   0  0  0  0  0  0  0  0  0  0  0  0
    6.0160   11.7967   28.9825 O   0  0  0  0  0  0  0  0  0  0  0  0
    4.4760   10.0653   28.5909 C   0  0  0  0  0  0  0  0  0  0  0  0
    3.5372   10.6702   29.6904 C   0  0  1  0  0  0  0  0  0  0  0  0
    3.3907   12.2036   29.6767 C   0  0  0  0  0  0  0  0  0  0  0  0
    2.1217   10.1124   29.5880 C   0  0  0  0  0  0  0  0  0  0  0  0
    1.3902   10.4350   30.6773 F   0  0  0  0  0  0  0  0  0  0  0  0
    2.1165    8.7682   29.4811 F   0  0  0  0  0  0  0  0  0  0  0  0
    1.4797   10.5977   28.4993 F   0  0  0  0  0  0  0  0  0  0  0  0
  1  2  1  0
  2  3  1  0
  3  4  2  0
  4  5  1  0
  5  6  1  0
  6  7  2  0
  6  8  1  0
  5  9  2  0
  9 10  1  0
 10 11  2  0
 11 12  1  0
 12 13  1  0
 13 14  2  0
 13 15  1  0
 15 16  1  0
 16 17  1  6
 16 18  1  0
 18 19  1  0
 18 20  1  0
 18 21  1  0
 11  3  1  0
M  CHG  2   6   1   8  -1
M  END
>  <ref_pdb>  (200) 
A3548a

>  <subsites>  (200) 
1 - Active Site

>  <HIPPO Compound ID>  (200) 
64811

>  <energy_score>  (200) 
-3.967743

>  <fragmenstein_mode>  (200) 
expansion

>  <scratch_subdir>  (200) 
/opt/xchem-fragalysis-2/maxwin/BulkDock/SCRATCH/511224/C51401-P213

>  <smiles>  (200) 
COc1cc([N+](=O)[O-])cnc1NC(=O)C[C@@H](C)C(F)(F)F

>  <alias>  (200) 
C51401-P213

>  <ref_mols>  (200) 
A1445a,A3548a

>  <inspiration_score>  (200) 
None

>  <tags>  (200) 
BulkDock Fragalysis export,fragmenstein_placed,openbind_a71ev2a_c1_scaffolds,openbind_a71ev2a_c1_knitwork_pure

>  <fragmenstein_outcome>  (200) 
acceptable

>  <fragmenstein_error>  (200) 


>  <distance_score>  (200) 
0.982212

>  <inchikey>  (200) 
CFGXRPXLHNPYEB-UHFFFAOYSA-N

>  <name>  (200) 
C51401-P213

>  <HIPPO Pose ID>  (200) 
186266

>  <Energy>  (200) 
53.724207

>  <exports>  (200) 
['/opt/xchem-fragalysis-2/maxwin/BulkDock/OUTPUTS/openbind_a71ev2a_c1_knitwork_pure_165VWF8.sdf', '/opt/xchem-fragalysis-2/maxwin/BulkDock/OUTPUTS/openbind_a71ev2a_c1_knitwork_pure_1B07PTU.sdf', '/opt/xchem-fragalysis-2/maxwin/BulkDock/OUTPUTS/openbind_a71ev2a_c1_knitwork_pure_1B07UWE.sdf', '/opt/xchem-fragalysis-2/maxwin/openbind-hippo/a71ev2a/openbind_a71ev2a_c1_scaffold_products.sdf', '/opt/xchem-fragalysis-2/maxwin/openbind-hippo/a71ev2a/cycle_01/bulkdock/openbind_a71ev2a_c1_scaffold_products.sdf', '/opt/xchem-fragalysis-2/maxwin/openbind-hippo/a71ev2a/cycle_01/bulkdock/openbind_a71ev2a_c1_scaffolds.sdf']

>  <fragmenstein_runtime>  (200) 
4.912653

$$$$
C107104-P174
     RDKit          3D

 19 20  0  0  0  0  0  0  0  0999 V2000
    5.6623   12.3272   26.1336 C   0  0  0  0  0  0  0  0  0  0  0  0
    6.4569   11.1566   26.7014 C   0  0  0  0  0  0  0  0  0  0  0  0
    5.5909   10.4172   27.7247 C   0  0  0  0  0  0  0  0  0  0  0  0
    6.9971   10.2011   25.6261 C   0  0  0  0  0  0  0  0  0  0  0  0
    8.0049   10.7959   24.7054 C   0  0  0  0  0  0  0  0  0  0  0  0
    8.4031   10.3084   23.4850 C   0  0  0  0  0  0  0  0  0  0  0  0
    9.0403   11.3163   22.8320 O   0  0  0  0  0  0  0  0  0  0  0  0
    9.1206   12.3158   23.7514 C   0  0  0  0  0  0  0  0  0  0  0  0
    9.6956   13.4691   23.3614 N   0  0  0  0  0  0  0  0  0  0  0  0
    9.5867   14.2465   22.0228 C   0  0  0  0  0  0  0  0  0  0  0  0
    8.9227   14.0463   21.0837 O   0  0  0  0  0  0  0  0  0  0  0  0
   10.6054   15.3670   22.0557 C   0  0  0  0  0  0  0  0  0  0  0  0
   12.0096   14.8647   21.7224 C   0  0  0  0  0  0  0  0  0  0  0  0
   12.7204   15.7830   20.7960 C   0  0  0  0  0  0  0  0  0  0  0  0
   13.5292   16.8665   21.0600 C   0  0  0  0  0  0  0  0  0  0  0  0
   13.8829   17.3577   19.8353 N   0  0  0  0  0  0  0  0  0  0  0  0
   13.2988   16.5673   18.8932 C   0  0  0  0  0  0  0  0  0  0  0  0
   12.5982   15.6049   19.4432 N   0  0  0  0  0  0  0  0  0  0  0  0
    8.6448   12.0010   24.9369 N   0  0  0  0  0  0  0  0  0  0  0  0
  1  2  1  0
  2  3  1  0
  2  4  1  0
  4  5  1  0
  5  6  2  0
  6  7  1  0
  7  8  1  0
  8  9  1  0
  9 10  1  0
 10 11  2  0
 10 12  1  0
 12 13  1  0
 13 14  1  0
 14 15  2  0
 15 16  1  0
 16 17  1  0
 17 18  2  0
  8 19  2  0
 19  5  1  0
 18 14  1  0
M  END
>  <ref_pdb>  (201) 
A3371a

>  <subsites>  (201) 
1 - Active Site

>  <HIPPO Compound ID>  (201) 
52416

>  <energy_score>  (201) 
-37.204348

>  <fragmenstein_mode>  (201) 
expansion

>  <scratch_subdir>  (201) 
/opt/xchem-fragalysis-2/maxwin/BulkDock/SCRATCH/512163/C107104-P174

>  <smiles>  (201) 
CC(C)Cc1coc(NC(=O)CCc2c[nH]cn2)n1

>  <alias>  (201) 
C107104-P174

>  <ref_mols>  (201) 
A4311a,A3371a

>  <inspiration_score>  (201) 
None

>  <tags>  (201) 
BulkDock Fragalysis export,fragmenstein_placed,openbind_a71ev2a_c1_scaffolds,openbind_a71ev2a_c1_knitwork_pure

>  <fragmenstein_outcome>  (201) 
acceptable

>  <fragmenstein_error>  (201) 


>  <distance_score>  (201) 
0.963833

>  <inchikey>  (201) 
CTFJRCJMDOHUDJ-UHFFFAOYSA-N

>  <name>  (201) 
C107104-P174

>  <HIPPO Pose ID>  (201) 
188490

>  <Energy>  (201) 
-16.52221

>  <exports>  (201) 
['/opt/xchem-fragalysis-2/maxwin/BulkDock/OUTPUTS/openbind_a71ev2a_c1_knitwork_pure_165VWF8.sdf', '/opt/xchem-fragalysis-2/maxwin/BulkDock/OUTPUTS/openbind_a71ev2a_c1_knitwork_pure_1B07PTU.sdf', '/opt/xchem-fragalysis-2/maxwin/BulkDock/OUTPUTS/openbind_a71ev2a_c1_knitwork_pure_1B07UWE.sdf', '/opt/xchem-fragalysis-2/maxwin/openbind-hippo/a71ev2a/openbind_a71ev2a_c1_scaffold_products.sdf', '/opt/xchem-fragalysis-2/maxwin/openbind-hippo/a71ev2a/cycle_01/bulkdock/openbind_a71ev2a_c1_scaffold_products.sdf', '/opt/xchem-fragalysis-2/maxwin/openbind-hippo/a71ev2a/cycle_01/bulkdock/openbind_a71ev2a_c1_scaffolds.sdf']

>  <fragmenstein_runtime>  (201) 
3.821419

$$$$
C52375-P405
     RDKit          3D

 23 25  0  0  0  0  0  0  0  0999 V2000
    9.7402   10.1603   24.3974 C   0  0  0  0  0  0  0  0  0  0  0  0
    9.6871   11.6535   24.1227 C   0  0  0  0  0  0  0  0  0  0  0  0
    8.7466   12.3503   25.0890 C   0  0  0  0  0  0  0  0  0  0  0  0
    7.3722   11.6826   25.0843 C   0  0  2  0  0  0  0  0  0  0  0  0
    6.4082   12.3254   26.0945 C   0  0  0  0  0  0  0  0  0  0  0  0
    6.6249   13.7312   26.1757 O   0  0  0  0  0  0  0  0  0  0  0  0
    5.9034   14.3381   27.2446 C   0  0  0  0  0  0  0  0  0  0  0  0
    6.4215   15.7644   27.3819 C   0  0  0  0  0  0  0  0  0  0  0  0
    5.7981   16.4764   28.5851 C   0  0  0  0  0  0  0  0  0  0  0  0
    6.2662   17.8450   28.8474 N   0  0  0  0  0  0  0  0  0  0  0  0
    5.9521   18.7649   27.7495 C   0  0  0  0  0  0  0  0  0  0  0  0
    6.2952   20.2026   28.1235 C   0  0  0  0  0  0  0  0  0  0  0  0
    7.7817   20.3463   28.5064 C   0  0  0  0  0  0  0  0  0  0  0  0
    8.0543   21.7565   28.8676 N   0  0  0  0  0  0  0  0  0  0  0  0
    7.9413   22.6411   27.6758 C   0  0  0  0  0  0  0  0  0  0  0  0
    9.1056   23.6308   27.4712 C   0  0  0  0  0  0  0  0  0  0  0  0
   10.4210   22.9867   27.5421 N   0  0  0  0  0  0  0  0  0  0  0  0
   10.5450   22.0773   28.6836 C   0  0  0  0  0  0  0  0  0  0  0  0
    9.3066   22.0118   29.5875 C   0  0  0  0  0  0  0  0  0  0  0  0
    8.0886   19.3277   29.6209 C   0  0  0  0  0  0  0  0  0  0  0  0
    7.6809   17.9112   29.2119 C   0  0  0  0  0  0  0  0  0  0  0  0
    7.4943   10.2858   25.3930 O   0  0  0  0  0  0  0  0  0  0  0  0
    8.3516    9.5744   24.5010 C   0  0  0  0  0  0  0  0  0  0  0  0
  1  2  1  0
  2  3  1  0
  3  4  1  0
  4  5  1  1
  5  6  1  0
  6  7  1  0
  7  8  1  0
  8  9  1  0
  9 10  1  0
 10 11  1  0
 11 12  1  0
 12 13  1  0
 13 14  1  0
 14 15  1  0
 15 16  1  0
 16 17  1  0
 17 18  1  0
 18 19  1  0
 13 20  1  0
 20 21  1  0
  4 22  1  0
 22 23  1  0
 23  1  1  0
 21 10  1  0
 19 14  1  0
M  END
>  <ref_pdb>  (202) 
A4570a

>  <subsites>  (202) 
1 - Active Site,4 - A0525/A/246/1

>  <HIPPO Compound ID>  (202) 
52375

>  <energy_score>  (202) 
-70.663425

>  <fragmenstein_mode>  (202) 
expansion

>  <scratch_subdir>  (202) 
/opt/xchem-fragalysis-2/maxwin/BulkDock/SCRATCH/512163/C52375-P405

>  <smiles>  (202) 
C1CC[C@H](COCCCN2CCC(N3CCNCC3)CC2)OC1

>  <alias>  (202) 
C52375-P405

>  <ref_mols>  (202) 
A4570a,A0469a

>  <inspiration_score>  (202) 
None

>  <tags>  (202) 
BulkDock Fragalysis export,fragmenstein_placed,openbind_a71ev2a_c1_scaffolds,openbind_a71ev2a_c1_knitwork_pure

>  <fragmenstein_outcome>  (202) 
acceptable

>  <fragmenstein_error>  (202) 


>  <distance_score>  (202) 
0.93701

>  <inchikey>  (202) 
PBWKBAOPCODYPW-UHFFFAOYSA-N

>  <name>  (202) 
C52375-P405

>  <HIPPO Pose ID>  (202) 
189206

>  <Energy>  (202) 
111.219203

>  <exports>  (202) 
['/opt/xchem-fragalysis-2/maxwin/BulkDock/OUTPUTS/openbind_a71ev2a_c1_knitwork_pure_165VWF8.sdf', '/opt/xchem-fragalysis-2/maxwin/BulkDock/OUTPUTS/openbind_a71ev2a_c1_knitwork_pure_1B07PTU.sdf', '/opt/xchem-fragalysis-2/maxwin/BulkDock/OUTPUTS/openbind_a71ev2a_c1_knitwork_pure_1B07UWE.sdf', '/opt/xchem-fragalysis-2/maxwin/openbind-hippo/a71ev2a/openbind_a71ev2a_c1_scaffold_products.sdf', '/opt/xchem-fragalysis-2/maxwin/openbind-hippo/a71ev2a/cycle_01/bulkdock/openbind_a71ev2a_c1_scaffold_products.sdf', '/opt/xchem-fragalysis-2/maxwin/openbind-hippo/a71ev2a/cycle_01/bulkdock/openbind_a71ev2a_c1_scaffolds.sdf']

>  <fragmenstein_runtime>  (202) 
6.289565

$$$$
C50753-P248
     RDKit          3D

 14 14  0  0  0  0  0  0  0  0999 V2000
    8.2707   14.9932   26.3212 C   0  0  0  0  0  0  0  0  0  0  0  0
    8.2615   14.5101   24.8671 C   0  0  2  0  0  0  0  0  0  0  0  0
    6.9807   14.9883   24.1869 C   0  0  0  0  0  0  0  0  0  0  0  0
    7.1090   14.8637   22.4174 S   0  0  0  0  0  0  0  0  0  0  0  0
    5.7767   15.7664   21.9601 N   0  0  0  0  0  0  0  0  0  0  0  0
    8.2649   15.5959   21.9639 O   0  0  0  0  0  0  0  0  0  0  0  0
    6.8567   13.5102   21.9684 O   0  0  0  0  0  0  0  0  0  0  0  0
    8.4298   13.0617   24.7785 N   0  0  0  0  0  0  0  0  0  0  0  0
    9.3966   12.4385   23.9051 C   0  0  0  0  0  0  0  0  0  0  0  0
    8.8610   11.0290   23.6902 C   0  0  1  0  0  0  0  0  0  0  0  0
    9.8491   10.0275   23.7590 O   0  0  0  0  0  0  0  0  0  0  0  0
    7.8339   10.7889   24.7804 C   0  0  0  0  0  0  0  0  0  0  0  0
    7.5241   12.1559   25.2895 C   0  0  0  0  0  0  0  0  0  0  0  0
    6.6218   12.4227   26.0645 O   0  0  0  0  0  0  0  0  0  0  0  0
  2  1  1  1
  2  3  1  0
  3  4  1  0
  4  5  1  0
  4  6  2  0
  4  7  2  0
  2  8  1  0
  8  9  1  0
  9 10  1  0
 10 11  1  1
 10 12  1  0
 12 13  1  0
 13 14  2  0
 13  8  1  0
M  END
>  <ref_pdb>  (203) 
A3956a

>  <subsites>  (203) 
1 - Active Site

>  <HIPPO Compound ID>  (203) 
104894

>  <energy_score>  (203) 
-39.003793

>  <fragmenstein_mode>  (203) 
expansion

>  <scratch_subdir>  (203) 
/opt/xchem-fragalysis-2/maxwin/BulkDock/SCRATCH/512163/C50753-P248

>  <smiles>  (203) 
C[C@H](CS(N)(=O)=O)N1C[C@@H](O)CC1=O

>  <alias>  (203) 
C50753-P248

>  <ref_mols>  (203) 
A3956a,A0719a

>  <inspiration_score>  (203) 
None

>  <tags>  (203) 
BulkDock Fragalysis export,fragmenstein_placed,openbind_a71ev2a_c1_scaffolds,openbind_a71ev2a_c1_knitwork_pure

>  <fragmenstein_outcome>  (203) 
acceptable

>  <fragmenstein_error>  (203) 


>  <distance_score>  (203) 
0.936937

>  <inchikey>  (203) 
RBNSWXUVCCJWGP-UHFFFAOYSA-N

>  <name>  (203) 
C50753-P248

>  <HIPPO Pose ID>  (203) 
191325

>  <Energy>  (203) 
-87.297347

>  <exports>  (203) 
['/opt/xchem-fragalysis-2/maxwin/BulkDock/OUTPUTS/openbind_a71ev2a_c1_knitwork_pure_165VWF8.sdf', '/opt/xchem-fragalysis-2/maxwin/BulkDock/OUTPUTS/openbind_a71ev2a_c1_knitwork_pure_1B07PTU.sdf', '/opt/xchem-fragalysis-2/maxwin/BulkDock/OUTPUTS/openbind_a71ev2a_c1_knitwork_pure_1B07UWE.sdf', '/opt/xchem-fragalysis-2/maxwin/openbind-hippo/a71ev2a/openbind_a71ev2a_c1_scaffold_products.sdf', '/opt/xchem-fragalysis-2/maxwin/openbind-hippo/a71ev2a/cycle_01/bulkdock/openbind_a71ev2a_c1_scaffold_products.sdf', '/opt/xchem-fragalysis-2/maxwin/openbind-hippo/a71ev2a/cycle_01/bulkdock/openbind_a71ev2a_c1_scaffolds.sdf']

>  <fragmenstein_runtime>  (203) 
1.356387

$$$$
C74114-P9
     RDKit          3D

 24 26  0  0  0  0  0  0  0  0999 V2000
   11.5401   16.1377    0.5086 C   0  0  0  0  0  0  0  0  0  0  0  0
   11.7950   15.9616    2.0087 C   0  0  2  0  0  0  0  0  0  0  0  0
   10.6253   16.5640    2.8523 C   0  0  0  0  0  0  0  0  0  0  0  0
    9.5393   15.5783    2.9344 N   0  0  0  0  0  0  0  0  0  0  0  0
    8.4890   15.8607    3.9452 C   0  0  0  0  0  0  0  0  0  0  0  0
    7.7931   14.5761    4.3211 C   0  0  0  0  0  0  0  0  0  0  0  0
    7.6143   13.4032    3.5429 C   0  0  0  0  0  0  0  0  0  0  0  0
    7.0236   12.5098    4.3943 C   0  0  0  0  0  0  0  0  0  0  0  0
    6.8186   13.1024    5.5931 O   0  0  0  0  0  0  0  0  0  0  0  0
    7.2691   14.4111    5.5488 N   0  0  0  0  0  0  0  0  0  0  0  0
   13.1712   16.5395    2.4062 C   0  0  0  0  0  0  0  0  0  0  0  0
   14.2596   15.6005    2.1622 N   0  0  0  0  0  0  0  0  0  0  0  0
   15.2351   14.8948    3.1618 C   0  0  0  0  0  0  0  0  0  0  0  0
   15.2581   14.9042    4.3331 O   0  0  0  0  0  0  0  0  0  0  0  0
   16.2182   14.0241    2.3460 C   0  0  0  0  0  0  0  0  0  0  0  0
   17.6597   14.4242    2.4922 C   0  0  0  0  0  0  0  0  0  0  0  0
   18.6058   13.5107    2.7798 N   0  0  0  0  0  0  0  0  0  0  0  0
   19.7594   14.2085    2.7390 N   0  0  0  0  0  0  0  0  0  0  0  0
   19.6071   15.5120    2.3522 C   0  0  0  0  0  0  0  0  0  0  0  0
   20.5443   16.5250    2.1267 C   0  0  0  0  0  0  0  0  0  0  0  0
   20.0483   17.7804    1.7671 C   0  0  0  0  0  0  0  0  0  0  0  0
   18.6778   18.0031    1.6414 C   0  0  0  0  0  0  0  0  0  0  0  0
   17.7582   16.9712    1.8649 C   0  0  0  0  0  0  0  0  0  0  0  0
   18.2358   15.6993    2.2268 C   0  0  0  0  0  0  0  0  0  0  0  0
  2  1  1  6
  2  3  1  0
  3  4  1  0
  4  5  1  0
  5  6  1  0
  6  7  1  0
  7  8  2  0
  8  9  1  0
  9 10  1  0
  2 11  1  0
 11 12  1  0
 12 13  1  0
 13 14  2  0
 13 15  1  0
 15 16  1  0
 16 17  2  0
 17 18  1  0
 18 19  1  0
 19 20  2  0
 20 21  1  0
 21 22  2  0
 22 23  1  0
 23 24  2  0
 10  6  2  0
 24 16  1  0
 24 19  1  0
M  END
>  <ref_pdb>  (204) 
A0486a

>  <subsites>  (204) 
3 - A0541/A/147/1,6 - A0486/A/147/1

>  <HIPPO Compound ID>  (204) 
53750

>  <energy_score>  (204) 
-37.396448

>  <fragmenstein_mode>  (204) 
expansion

>  <scratch_subdir>  (204) 
/opt/xchem-fragalysis-2/maxwin/BulkDock/SCRATCH/512163/C74114-P9

>  <smiles>  (204) 
C[C@H](CNCc1ccon1)CNC(=O)Cc1n[nH]c2ccccc12

>  <alias>  (204) 
C74114-P9

>  <ref_mols>  (204) 
A0486a,A0541a

>  <inspiration_score>  (204) 
None

>  <tags>  (204) 
BulkDock Fragalysis export,fragmenstein_placed,openbind_a71ev2a_c1_scaffolds,openbind_a71ev2a_c1_knitwork_pure

>  <fragmenstein_outcome>  (204) 
acceptable

>  <fragmenstein_error>  (204) 


>  <distance_score>  (204) 
0.943951

>  <inchikey>  (204) 
UDHNRVXHVXPDPQ-UHFFFAOYSA-N

>  <name>  (204) 
C74114-P9

>  <HIPPO Pose ID>  (204) 
191560

>  <Energy>  (204) 
67.301313

>  <exports>  (204) 
['/opt/xchem-fragalysis-2/maxwin/BulkDock/OUTPUTS/openbind_a71ev2a_c1_knitwork_pure_165VWF8.sdf', '/opt/xchem-fragalysis-2/maxwin/BulkDock/OUTPUTS/openbind_a71ev2a_c1_knitwork_pure_1B07PTU.sdf', '/opt/xchem-fragalysis-2/maxwin/BulkDock/OUTPUTS/openbind_a71ev2a_c1_knitwork_pure_1B07UWE.sdf', '/opt/xchem-fragalysis-2/maxwin/openbind-hippo/a71ev2a/openbind_a71ev2a_c1_scaffold_products.sdf', '/opt/xchem-fragalysis-2/maxwin/openbind-hippo/a71ev2a/cycle_01/bulkdock/openbind_a71ev2a_c1_scaffold_products.sdf', '/opt/xchem-fragalysis-2/maxwin/openbind-hippo/a71ev2a/cycle_01/bulkdock/openbind_a71ev2a_c1_scaffolds.sdf']

>  <fragmenstein_runtime>  (204) 
2.386678

$$$$
C74115-P9
     RDKit          3D

 25 27  0  0  0  0  0  0  0  0999 V2000
   11.5896   15.5605    0.3209 C   0  0  0  0  0  0  0  0  0  0  0  0
   11.8321   15.6045    1.8321 C   0  0  2  0  0  0  0  0  0  0  0  0
   10.6421   16.3124    2.5708 C   0  0  0  0  0  0  0  0  0  0  0  0
    9.4470   15.4499    2.6322 N   0  0  0  0  0  0  0  0  0  0  0  0
    8.4907   15.7787    3.7296 C   0  0  0  0  0  0  0  0  0  0  0  0
    7.7407   14.5389    4.1549 C   0  0  0  0  0  0  0  0  0  0  0  0
    7.3073   13.4519    3.3545 C   0  0  0  0  0  0  0  0  0  0  0  0
    6.8167   12.5401    4.2498 C   0  0  0  0  0  0  0  0  0  0  0  0
    6.8939   13.0519    5.5006 O   0  0  0  0  0  0  0  0  0  0  0  0
    7.4417   14.3223    5.4477 N   0  0  0  0  0  0  0  0  0  0  0  0
   13.1941   16.2677    2.1548 C   0  0  0  0  0  0  0  0  0  0  0  0
   14.3414   15.3783    1.9880 N   0  0  0  0  0  0  0  0  0  0  0  0
   15.3285   14.7809    3.0501 C   0  0  0  0  0  0  0  0  0  0  0  0
   15.3185   14.8529    4.2206 O   0  0  0  0  0  0  0  0  0  0  0  0
   16.4154   13.9564    2.3099 C   0  0  0  0  0  0  0  0  0  0  0  0
   17.8149   14.5097    2.4294 C   0  0  0  0  0  0  0  0  0  0  0  0
   18.8714   13.6969    2.6376 N   0  0  0  0  0  0  0  0  0  0  0  0
   19.9472   14.5212    2.5590 N   0  0  0  0  0  0  0  0  0  0  0  0
   21.2833   14.0018    2.7609 C   0  0  0  0  0  0  0  0  0  0  0  0
   19.6269   15.8217    2.2644 C   0  0  0  0  0  0  0  0  0  0  0  0
   20.4198   16.9584    2.0474 C   0  0  0  0  0  0  0  0  0  0  0  0
   19.7660   18.1576    1.7639 C   0  0  0  0  0  0  0  0  0  0  0  0
   18.3771   18.2168    1.7027 C   0  0  0  0  0  0  0  0  0  0  0  0
   17.5999   17.0733    1.9180 C   0  0  0  0  0  0  0  0  0  0  0  0
   18.2364   15.8519    2.2040 C   0  0  0  0  0  0  0  0  0  0  0  0
  2  1  1  6
  2  3  1  0
  3  4  1  0
  4  5  1  0
  5  6  1  0
  6  7  1  0
  7  8  2  0
  8  9  1  0
  9 10  1  0
  2 11  1  0
 11 12  1  0
 12 13  1  0
 13 14  2  0
 13 15  1  0
 15 16  1  0
 16 17  2  0
 17 18  1  0
 18 19  1  0
 18 20  1  0
 20 21  2  0
 21 22  1  0
 22 23  2  0
 23 24  1  0
 24 25  2  0
 10  6  2  0
 25 16  1  0
 25 20  1  0
M  END
>  <ref_pdb>  (205) 
A0486a

>  <subsites>  (205) 
3 - A0541/A/147/1,6 - A0486/A/147/1

>  <HIPPO Compound ID>  (205) 
52408

>  <energy_score>  (205) 
-29.12269

>  <fragmenstein_mode>  (205) 
expansion

>  <scratch_subdir>  (205) 
/opt/xchem-fragalysis-2/maxwin/BulkDock/SCRATCH/512163/C74115-P9

>  <smiles>  (205) 
C[C@H](CNCc1ccon1)CNC(=O)Cc1nn(C)c2ccccc12

>  <alias>  (205) 
C74115-P9

>  <ref_mols>  (205) 
A0486a,A0541a

>  <inspiration_score>  (205) 
None

>  <tags>  (205) 
BulkDock Fragalysis export,fragmenstein_placed,openbind_a71ev2a_c1_scaffolds,openbind_a71ev2a_c1_knitwork_pure

>  <fragmenstein_outcome>  (205) 
acceptable

>  <fragmenstein_error>  (205) 


>  <distance_score>  (205) 
0.967361

>  <inchikey>  (205) 
QGEQCOIPUBEYKU-UHFFFAOYSA-N

>  <name>  (205) 
C74115-P9

>  <HIPPO Pose ID>  (205) 
191562

>  <Energy>  (205) 
70.074285

>  <exports>  (205) 
['/opt/xchem-fragalysis-2/maxwin/BulkDock/OUTPUTS/openbind_a71ev2a_c1_knitwork_pure_165VWF8.sdf', '/opt/xchem-fragalysis-2/maxwin/BulkDock/OUTPUTS/openbind_a71ev2a_c1_knitwork_pure_1B07PTU.sdf', '/opt/xchem-fragalysis-2/maxwin/BulkDock/OUTPUTS/openbind_a71ev2a_c1_knitwork_pure_1B07UWE.sdf', '/opt/xchem-fragalysis-2/maxwin/openbind-hippo/a71ev2a/openbind_a71ev2a_c1_scaffold_products.sdf', '/opt/xchem-fragalysis-2/maxwin/openbind-hippo/a71ev2a/cycle_01/bulkdock/openbind_a71ev2a_c1_scaffold_products.sdf', '/opt/xchem-fragalysis-2/maxwin/openbind-hippo/a71ev2a/cycle_01/bulkdock/openbind_a71ev2a_c1_scaffolds.sdf']

>  <fragmenstein_runtime>  (205) 
3.51533

$$$$
C106645-P363
     RDKit          3D

 15 17  0  0  0  0  0  0  0  0999 V2000
   12.5661   15.5223   22.9699 O   0  0  0  0  0  0  0  0  0  0  0  0
   11.7746   14.8737   22.2961 C   0  0  0  0  0  0  0  0  0  0  0  0
   11.0913   13.6072   22.7717 C   0  0  0  0  0  0  0  0  0  0  0  0
   11.0419   13.4411   24.2906 C   0  0  0  0  0  0  0  0  0  0  0  0
   10.2441   12.2402   24.7661 C   0  0  0  0  0  0  0  0  0  0  0  0
    9.8397   11.0620   23.9039 C   0  0  0  0  0  0  0  0  0  0  0  0
    8.7940   12.0069   24.3988 C   0  0  0  0  0  0  0  0  0  0  0  0
   10.6001   14.7225   24.9748 C   0  0  0  0  0  0  0  0  0  0  0  0
    9.4785   14.8630   25.9772 C   0  0  0  0  0  0  0  0  0  0  0  0
    9.2930   15.3528   24.5734 C   0  0  0  0  0  0  0  0  0  0  0  0
   11.3658   15.2678   20.9688 C   0  0  0  0  0  0  0  0  0  0  0  0
   10.4099   16.2364   20.7477 C   0  0  0  0  0  0  0  0  0  0  0  0
    9.9627   16.1945   19.1092 S   0  0  0  0  0  0  0  0  0  0  0  0
   11.1202   14.9923   18.8064 C   0  0  0  0  0  0  0  0  0  0  0  0
   11.7764   14.5533   19.8517 N   0  0  0  0  0  0  0  0  0  0  0  0
  1  2  2  0
  2  3  1  0
  3  4  1  0
  4  5  1  0
  5  6  1  0
  6  7  1  0
  4  8  1  0
  8  9  1  0
  9 10  1  0
  2 11  1  0
 11 12  2  0
 12 13  1  0
 13 14  1  0
 14 15  2  0
  7  5  1  0
 10  8  1  0
 15 11  1  0
M  END
>  <ref_pdb>  (206) 
A4445a

>  <subsites>  (206) 
1 - Active Site

>  <HIPPO Compound ID>  (206) 
53625

>  <energy_score>  (206) 
-49.140937

>  <fragmenstein_mode>  (206) 
expansion

>  <scratch_subdir>  (206) 
/opt/xchem-fragalysis-2/maxwin/BulkDock/SCRATCH/512163/C106645-P363

>  <smiles>  (206) 
O=C(CC(C1CC1)C1CC1)c1cscn1

>  <alias>  (206) 
C106645-P363

>  <ref_mols>  (206) 
A3306a,A4445a

>  <inspiration_score>  (206) 
None

>  <tags>  (206) 
BulkDock Fragalysis export,fragmenstein_placed,openbind_a71ev2a_c1_scaffolds,openbind_a71ev2a_c1_knitwork_pure

>  <fragmenstein_outcome>  (206) 
acceptable

>  <fragmenstein_error>  (206) 


>  <distance_score>  (206) 
0.995026

>  <inchikey>  (206) 
MRFSLWKYICIDAF-UHFFFAOYSA-N

>  <name>  (206) 
C106645-P363

>  <HIPPO Pose ID>  (206) 
192116

>  <Energy>  (206) 
86.198924

>  <exports>  (206) 
['/opt/xchem-fragalysis-2/maxwin/BulkDock/OUTPUTS/openbind_a71ev2a_c1_knitwork_pure_165VWF8.sdf', '/opt/xchem-fragalysis-2/maxwin/BulkDock/OUTPUTS/openbind_a71ev2a_c1_knitwork_pure_1B07PTU.sdf', '/opt/xchem-fragalysis-2/maxwin/BulkDock/OUTPUTS/openbind_a71ev2a_c1_knitwork_pure_1B07UWE.sdf', '/opt/xchem-fragalysis-2/maxwin/openbind-hippo/a71ev2a/openbind_a71ev2a_c1_scaffold_products.sdf', '/opt/xchem-fragalysis-2/maxwin/openbind-hippo/a71ev2a/cycle_01/bulkdock/openbind_a71ev2a_c1_scaffold_products.sdf', '/opt/xchem-fragalysis-2/maxwin/openbind-hippo/a71ev2a/cycle_01/bulkdock/openbind_a71ev2a_c1_scaffolds.sdf']

>  <fragmenstein_runtime>  (206) 
11.450468

$$$$
C52382-P224
     RDKit          3D

 21 23  0  0  0  0  0  0  0  0999 V2000
    8.9056   14.0988   21.4544 O   0  0  0  0  0  0  0  0  0  0  0  0
    9.4462   14.4635   22.7419 S   0  0  0  0  0  0  0  0  0  0  0  0
    9.1709   15.7465   23.3408 O   0  0  0  0  0  0  0  0  0  0  0  0
   11.2186   14.1342   22.8349 C   0  0  0  0  0  0  0  0  0  0  0  0
   12.0407   15.4243   22.7622 C   0  0  0  0  0  0  0  0  0  0  0  0
   12.2577   16.0506   21.3752 C   0  0  0  0  0  0  0  0  0  0  0  0
   11.1116   15.8712   20.4411 C   0  0  0  0  0  0  0  0  0  0  0  0
   11.0724   15.9569   18.9281 C   0  0  0  0  0  0  0  0  0  0  0  0
   11.2086   14.6412   19.5821 C   0  0  0  0  0  0  0  0  0  0  0  0
    8.7929   13.2686   23.7135 N   0  0  0  0  0  0  0  0  0  0  0  0
    8.2482   13.5475   25.0577 C   0  0  0  0  0  0  0  0  0  0  0  0
    7.6985   12.2318   25.6530 C   0  0  0  0  0  0  0  0  0  0  0  0
    6.6906   12.2187   26.6325 C   0  0  0  0  0  0  0  0  0  0  0  0
    6.0523   11.0393   26.9919 C   0  0  0  0  0  0  0  0  0  0  0  0
    6.4581    9.8757   26.3818 C   0  0  0  0  0  0  0  0  0  0  0  0
    7.4801    9.8073   25.5072 N   0  0  0  0  0  0  0  0  0  0  0  0
    8.0752   10.9778   25.1647 C   0  0  0  0  0  0  0  0  0  0  0  0
    9.3163   14.2194   25.9378 C   0  0  0  0  0  0  0  0  0  0  0  0
    8.5301   15.0151   26.9637 C   0  0  0  0  0  0  0  0  0  0  0  0
    7.3620   15.5751   26.1605 C   0  0  0  0  0  0  0  0  0  0  0  0
    7.1055   14.6007   25.0010 C   0  0  0  0  0  0  0  0  0  0  0  0
  1  2  2  0
  2  3  2  0
  2  4  1  0
  4  5  1  0
  5  6  1  0
  6  7  1  0
  7  8  1  0
  8  9  1  0
  2 10  1  0
 10 11  1  0
 11 12  1  0
 12 13  2  0
 13 14  1  0
 14 15  2  0
 15 16  1  0
 16 17  2  0
 11 18  1  0
 18 19  1  0
 19 20  1  0
 20 21  1  0
  9  7  1  0
 21 11  1  0
 17 12  1  0
M  END
>  <ref_pdb>  (207) 
A3849a

>  <subsites>  (207) 
1 - Active Site

>  <HIPPO Compound ID>  (207) 
3809

>  <energy_score>  (207) 
-40.596595

>  <fragmenstein_mode>  (207) 
expansion

>  <scratch_subdir>  (207) 
/opt/xchem-fragalysis-2/maxwin/BulkDock/SCRATCH/512163/C52382-P224

>  <smiles>  (207) 
O=S(=O)(CCCC1CC1)NC1(c2cccnc2)CCCC1

>  <alias>  (207) 
C52382-P224

>  <ref_mols>  (207) 
A3849a,A0719a

>  <inspiration_score>  (207) 
None

>  <tags>  (207) 
BulkDock Fragalysis export,fragmenstein_placed,openbind_a71ev2a_c1_scaffolds,openbind_a71ev2a_c1_knitwork_pure

>  <fragmenstein_outcome>  (207) 
acceptable

>  <fragmenstein_error>  (207) 


>  <distance_score>  (207) 
0.867674

>  <inchikey>  (207) 
RPRHXEYBWVZIEC-UHFFFAOYSA-N

>  <name>  (207) 
C52382-P224

>  <HIPPO Pose ID>  (207) 
192557

>  <Energy>  (207) 
-8.113395

>  <exports>  (207) 
['/opt/xchem-fragalysis-2/maxwin/BulkDock/OUTPUTS/openbind_a71ev2a_c1_knitwork_pure_165VWF8.sdf', '/opt/xchem-fragalysis-2/maxwin/BulkDock/OUTPUTS/openbind_a71ev2a_c1_knitwork_pure_1B07PTU.sdf', '/opt/xchem-fragalysis-2/maxwin/BulkDock/OUTPUTS/openbind_a71ev2a_c1_knitwork_pure_1B07UWE.sdf', '/opt/xchem-fragalysis-2/maxwin/openbind-hippo/a71ev2a/openbind_a71ev2a_c1_scaffold_products.sdf', '/opt/xchem-fragalysis-2/maxwin/openbind-hippo/a71ev2a/cycle_01/bulkdock/openbind_a71ev2a_c1_scaffold_products.sdf', '/opt/xchem-fragalysis-2/maxwin/openbind-hippo/a71ev2a/cycle_01/bulkdock/openbind_a71ev2a_c1_scaffolds.sdf']

>  <fragmenstein_runtime>  (207) 
15.968859

$$$$
C52408-P224
     RDKit          3D

 24 26  0  0  0  0  0  0  0  0999 V2000
    8.0076   14.6685   26.5666 C   0  0  0  0  0  0  0  0  0  0  0  0
    8.1091   14.2588   25.0917 C   0  0  2  0  0  0  0  0  0  0  0  0
    6.8497   14.7169   24.3609 C   0  0  0  0  0  0  0  0  0  0  0  0
    7.0330   14.7181   22.5867 S   0  0  0  0  0  0  0  0  0  0  0  0
    8.1507   15.5675   22.2439 O   0  0  0  0  0  0  0  0  0  0  0  0
    6.9294   13.3761   22.0563 O   0  0  0  0  0  0  0  0  0  0  0  0
    5.6365   15.5871   22.1889 N   0  0  0  0  0  0  0  0  0  0  0  0
    4.4283   14.8309   21.8920 C   0  0  0  0  0  0  0  0  0  0  0  0
    3.8584   14.5980   20.6676 C   0  0  0  0  0  0  0  0  0  0  0  0
    2.6554   13.8762   20.9336 C   0  0  0  0  0  0  0  0  0  0  0  0
    1.6646   13.3611   19.9912 C   0  0  0  0  0  0  0  0  0  0  0  0
    1.7139   13.6393   18.6252 C   0  0  0  0  0  0  0  0  0  0  0  0
    0.7313   13.1301   17.7760 C   0  0  0  0  0  0  0  0  0  0  0  0
   -0.2689   12.3399   18.3155 C   0  0  0  0  0  0  0  0  0  0  0  0
   -0.3528   12.0342   19.6259 N   0  0  0  0  0  0  0  0  0  0  0  0
    0.6109   12.5576   20.4281 C   0  0  0  0  0  0  0  0  0  0  0  0
    2.5005   13.7010   22.2571 N   0  0  0  0  0  0  0  0  0  0  0  0
    3.6277   14.1951   22.7914 N   0  0  0  0  0  0  0  0  0  0  0  0
    8.3395   12.7690   24.9154 C   0  0  0  0  0  0  0  0  0  0  0  0
    7.5748   11.8073   25.5939 C   0  0  0  0  0  0  0  0  0  0  0  0
    7.7620   10.4454   25.3523 C   0  0  0  0  0  0  0  0  0  0  0  0
    8.6976   10.0271   24.4124 C   0  0  0  0  0  0  0  0  0  0  0  0
    9.4436   10.9714   23.7164 C   0  0  0  0  0  0  0  0  0  0  0  0
    9.2837   12.3309   23.9761 C   0  0  0  0  0  0  0  0  0  0  0  0
  2  1  1  1
  2  3  1  0
  3  4  1  0
  4  5  2  0
  4  6  2  0
  4  7  1  0
  7  8  1  0
  8  9  2  0
  9 10  1  0
 10 11  1  0
 11 12  2  0
 12 13  1  0
 13 14  2  0
 14 15  1  0
 15 16  2  0
 10 17  2  0
 17 18  1  0
  2 19  1  0
 19 20  2  0
 20 21  1  0
 21 22  2  0
 22 23  1  0
 23 24  2  0
 18  8  1  0
 24 19  1  0
 16 11  1  0
M  END
>  <ref_pdb>  (208) 
A3849a

>  <subsites>  (208) 
1 - Active Site

>  <HIPPO Compound ID>  (208) 
48539

>  <energy_score>  (208) 
-42.538638

>  <fragmenstein_mode>  (208) 
expansion

>  <scratch_subdir>  (208) 
/opt/xchem-fragalysis-2/maxwin/BulkDock/SCRATCH/512163/C52408-P224

>  <smiles>  (208) 
C[C@H](CS(=O)(=O)Nc1cc(-c2cccnc2)n[nH]1)c1ccccc1

>  <alias>  (208) 
C52408-P224

>  <ref_mols>  (208) 
A3849a,A0719a

>  <inspiration_score>  (208) 
None

>  <tags>  (208) 
BulkDock Fragalysis export,fragmenstein_placed,openbind_a71ev2a_c1_scaffolds,openbind_a71ev2a_c1_knitwork_pure

>  <fragmenstein_outcome>  (208) 
acceptable

>  <fragmenstein_error>  (208) 


>  <distance_score>  (208) 
0.711714

>  <inchikey>  (208) 
CKCILQQJPFHCBG-UHFFFAOYSA-N

>  <name>  (208) 
C52408-P224

>  <HIPPO Pose ID>  (208) 
192564

>  <Energy>  (208) 
23.293357

>  <exports>  (208) 
['/opt/xchem-fragalysis-2/maxwin/BulkDock/OUTPUTS/openbind_a71ev2a_c1_knitwork_pure_165VWF8.sdf', '/opt/xchem-fragalysis-2/maxwin/BulkDock/OUTPUTS/openbind_a71ev2a_c1_knitwork_pure_1B07PTU.sdf', '/opt/xchem-fragalysis-2/maxwin/BulkDock/OUTPUTS/openbind_a71ev2a_c1_knitwork_pure_1B07UWE.sdf', '/opt/xchem-fragalysis-2/maxwin/openbind-hippo/a71ev2a/openbind_a71ev2a_c1_scaffold_products.sdf', '/opt/xchem-fragalysis-2/maxwin/openbind-hippo/a71ev2a/cycle_01/bulkdock/openbind_a71ev2a_c1_scaffold_products.sdf', '/opt/xchem-fragalysis-2/maxwin/openbind-hippo/a71ev2a/cycle_01/bulkdock/openbind_a71ev2a_c1_scaffolds.sdf']

>  <fragmenstein_runtime>  (208) 
27.329371

$$$$
C66854-P120
     RDKit          3D

 19 19  0  0  0  0  0  0  0  0999 V2000
    8.0915   14.7006   23.4384 C   0  0  0  0  0  0  0  0  0  0  0  0
    8.7721   13.3663   23.7264 C   0  0  0  0  0  0  0  0  0  0  0  0
    9.9727   13.6115   24.6281 C   0  0  0  0  0  0  0  0  0  0  0  0
    7.8468   12.3407   24.2384 N   0  0  0  0  0  0  0  0  0  0  0  0
    8.1054   10.9259   24.0678 C   0  0  0  0  0  0  0  0  0  0  0  0
    6.9608   10.2076   24.7480 C   0  0  0  0  0  0  0  0  0  0  0  0
    6.5850   11.1715   25.8404 C   0  0  2  0  0  0  0  0  0  0  0  0
    5.3152   10.9587   26.4645 N   0  0  0  0  0  0  0  0  0  0  0  0
    4.9622   10.6031   27.9284 C   0  0  0  0  0  0  0  0  0  0  0  0
    5.6548   10.3531   28.8339 O   0  0  0  0  0  0  0  0  0  0  0  0
    3.4473   10.6277   28.0501 C   0  0  0  0  0  0  0  0  0  0  0  0
    3.0233   10.8405   29.5116 C   0  0  1  0  0  0  0  0  0  0  0  0
    3.3106   12.2762   29.9619 C   0  0  0  0  0  0  0  0  0  0  0  0
    1.5527   10.5221   29.6725 C   0  0  0  0  0  0  0  0  0  0  0  0
    1.1657   10.6508   30.9593 F   0  0  0  0  0  0  0  0  0  0  0  0
    1.2851    9.2508   29.2945 F   0  0  0  0  0  0  0  0  0  0  0  0
    0.7849   11.3374   28.9185 F   0  0  0  0  0  0  0  0  0  0  0  0
    6.9223   12.5461   25.2743 C   0  0  0  0  0  0  0  0  0  0  0  0
    6.5514   13.6081   25.7460 O   0  0  0  0  0  0  0  0  0  0  0  0
  1  2  1  0
  2  3  1  0
  2  4  1  0
  4  5  1  0
  5  6  1  0
  6  7  1  0
  7  8  1  6
  8  9  1  0
  9 10  2  0
  9 11  1  0
 11 12  1  0
 12 13  1  6
 12 14  1  0
 14 15  1  0
 14 16  1  0
 14 17  1  0
  7 18  1  0
 18 19  2  0
 18  4  1  0
M  END
>  <ref_pdb>  (209) 
A1445a

>  <subsites>  (209) 
1 - Active Site

>  <HIPPO Compound ID>  (209) 
51256

>  <energy_score>  (209) 
-18.134052

>  <fragmenstein_mode>  (209) 
expansion

>  <scratch_subdir>  (209) 
/opt/xchem-fragalysis-2/maxwin/BulkDock/SCRATCH/512163/C66854-P120

>  <smiles>  (209) 
CC(C)N1CC[C@H](NC(=O)C[C@@H](C)C(F)(F)F)C1=O

>  <alias>  (209) 
C66854-P120

>  <ref_mols>  (209) 
A3956a,A1445a

>  <inspiration_score>  (209) 
None

>  <tags>  (209) 
BulkDock Fragalysis export,fragmenstein_placed,openbind_a71ev2a_c1_scaffolds,openbind_a71ev2a_c1_knitwork_pure

>  <fragmenstein_outcome>  (209) 
acceptable

>  <fragmenstein_error>  (209) 


>  <distance_score>  (209) 
0.672214

>  <inchikey>  (209) 
DRJGGQZLWYEHNT-UHFFFAOYSA-N

>  <name>  (209) 
C66854-P120

>  <HIPPO Pose ID>  (209) 
192709

>  <Energy>  (209) 
9.466101

>  <exports>  (209) 
['/opt/xchem-fragalysis-2/maxwin/BulkDock/OUTPUTS/openbind_a71ev2a_c1_knitwork_pure_165VWF8.sdf', '/opt/xchem-fragalysis-2/maxwin/BulkDock/OUTPUTS/openbind_a71ev2a_c1_knitwork_pure_1B07PTU.sdf', '/opt/xchem-fragalysis-2/maxwin/BulkDock/OUTPUTS/openbind_a71ev2a_c1_knitwork_pure_1B07UWE.sdf', '/opt/xchem-fragalysis-2/maxwin/openbind-hippo/a71ev2a/openbind_a71ev2a_c1_scaffold_products.sdf', '/opt/xchem-fragalysis-2/maxwin/openbind-hippo/a71ev2a/cycle_01/bulkdock/openbind_a71ev2a_c1_scaffold_products.sdf', '/opt/xchem-fragalysis-2/maxwin/openbind-hippo/a71ev2a/cycle_01/bulkdock/openbind_a71ev2a_c1_scaffolds.sdf']

>  <fragmenstein_runtime>  (209) 
4.688383

$$$$
C2716-P8
     RDKit          3D

 11 12  0  0  0  0  0  0  0  0999 V2000
    3.1392   14.6646   21.1004 C   0  0  0  0  0  0  0  0  0  0  0  0
    2.0937   15.3229   20.6382 N   0  0  0  0  0  0  0  0  0  0  0  0
    1.8001   14.7139   19.4533 C   0  0  0  0  0  0  0  0  0  0  0  0
    2.7041   13.7076   19.2450 C   0  0  0  0  0  0  0  0  0  0  0  0
    2.7198   12.5434   18.3405 C   0  0  2  0  0  0  0  0  0  0  0  0
    1.5792   11.6417   18.8008 C   0  0  0  0  0  0  0  0  0  0  0  0
    1.8960   11.1086   20.1928 C   0  0  0  0  0  0  0  0  0  0  0  0
    3.2007   10.3251   20.1235 C   0  0  0  0  0  0  0  0  0  0  0  0
    4.2790   11.1427   19.6851 O   0  0  0  0  0  0  0  0  0  0  0  0
    4.0438   11.7859   18.4218 C   0  0  0  0  0  0  0  0  0  0  0  0
    3.5952   13.7045   20.2767 O   0  0  0  0  0  0  0  0  0  0  0  0
  1  2  2  0
  2  3  1  0
  3  4  2  0
  5  4  1  1
  5  6  1  0
  6  7  1  0
  7  8  1  0
  8  9  1  0
  9 10  1  0
  4 11  1  0
 11  1  1  0
 10  5  1  0
M  END
>  <ref_pdb>  (210) 
A0473a

>  <subsites>  (210) 
1 - Active Site

>  <HIPPO Compound ID>  (210) 
104497

>  <energy_score>  (210) 
-19.414183

>  <fragmenstein_mode>  (210) 
expansion

>  <scratch_subdir>  (210) 
/opt/xchem-fragalysis-2/maxwin/BulkDock/SCRATCH/512163/C2716-P8

>  <smiles>  (210) 
c1ncc([C@@H]2CCCOC2)o1

>  <alias>  (210) 
C2716-P8

>  <ref_mols>  (210) 
A0473a,A3623a

>  <inspiration_score>  (210) 
None

>  <tags>  (210) 
BulkDock Fragalysis export,fragmenstein_placed,openbind_a71ev2a_c1_scaffolds,openbind_a71ev2a_c1_knitwork_pure

>  <fragmenstein_outcome>  (210) 
acceptable

>  <fragmenstein_error>  (210) 


>  <distance_score>  (210) 
0.785102

>  <inchikey>  (210) 
GNAHZGVSELLNGY-UHFFFAOYSA-N

>  <name>  (210) 
C2716-P8

>  <HIPPO Pose ID>  (210) 
194046

>  <Energy>  (210) 
31.844504

>  <exports>  (210) 
['/opt/xchem-fragalysis-2/maxwin/BulkDock/OUTPUTS/openbind_a71ev2a_c1_knitwork_pure_165VWF8.sdf', '/opt/xchem-fragalysis-2/maxwin/BulkDock/OUTPUTS/openbind_a71ev2a_c1_knitwork_pure_1B07PTU.sdf', '/opt/xchem-fragalysis-2/maxwin/BulkDock/OUTPUTS/openbind_a71ev2a_c1_knitwork_pure_1B07UWE.sdf', '/opt/xchem-fragalysis-2/maxwin/openbind-hippo/a71ev2a/openbind_a71ev2a_c1_scaffold_products.sdf', '/opt/xchem-fragalysis-2/maxwin/openbind-hippo/a71ev2a/cycle_01/bulkdock/openbind_a71ev2a_c1_scaffold_products.sdf', '/opt/xchem-fragalysis-2/maxwin/openbind-hippo/a71ev2a/cycle_01/bulkdock/openbind_a71ev2a_c1_scaffolds.sdf']

>  <fragmenstein_runtime>  (210) 
0.799808

$$$$
C3806-P190
     RDKit          3D

 11 12  0  0  0  0  0  0  0  0999 V2000
    8.2853   14.4307   25.1940 C   0  0  0  0  0  0  0  0  0  0  0  0
    7.7315   15.6317   25.3744 N   0  0  0  0  0  0  0  0  0  0  0  0
    6.5432   15.5271   24.7592 N   0  0  0  0  0  0  0  0  0  0  0  0
    6.3183   14.2927   24.2280 C   0  0  0  0  0  0  0  0  0  0  0  0
    7.4438   13.5374   24.4899 C   0  0  0  0  0  0  0  0  0  0  0  0
    7.6764   12.1023   24.1148 C   0  0  1  0  0  0  0  0  0  0  0  0
    9.1177   11.8010   23.7101 C   0  0  0  0  0  0  0  0  0  0  0  0
    9.3591   10.3160   23.4335 C   0  0  0  0  0  0  0  0  0  0  0  0
    8.2604    9.3779   23.9054 C   0  0  0  0  0  0  0  0  0  0  0  0
    7.6079    9.7661   25.1439 N   0  0  0  0  0  0  0  0  0  0  0  0
    7.1762   11.1551   25.2166 C   0  0  0  0  0  0  0  0  0  0  0  0
  1  2  2  0
  2  3  1  0
  3  4  1  0
  4  5  2  0
  6  5  1  1
  6  7  1  0
  7  8  1  0
  8  9  1  0
  9 10  1  0
 10 11  1  0
  5  1  1  0
 11  6  1  0
M  END
>  <ref_pdb>  (211) 
A3509a

>  <subsites>  (211) 
1 - Active Site

>  <HIPPO Compound ID>  (211) 
47021

>  <energy_score>  (211) 
-10.94545

>  <fragmenstein_mode>  (211) 
expansion

>  <scratch_subdir>  (211) 
/opt/xchem-fragalysis-2/maxwin/BulkDock/SCRATCH/512163/C3806-P190

>  <smiles>  (211) 
c1n[nH]cc1[C@H]1CCCNC1

>  <alias>  (211) 
C3806-P190

>  <ref_mols>  (211) 
A0556a,A3509a

>  <inspiration_score>  (211) 
None

>  <tags>  (211) 
BulkDock Fragalysis export,fragmenstein_placed,openbind_a71ev2a_c1_scaffolds,openbind_a71ev2a_c1_knitwork_pure

>  <fragmenstein_outcome>  (211) 
acceptable

>  <fragmenstein_error>  (211) 


>  <distance_score>  (211) 
0.981658

>  <inchikey>  (211) 
XBCUCSHTTYKLFQ-UHFFFAOYSA-N

>  <name>  (211) 
C3806-P190

>  <HIPPO Pose ID>  (211) 
195169

>  <Energy>  (211) 
27.909009

>  <exports>  (211) 
['/opt/xchem-fragalysis-2/maxwin/BulkDock/OUTPUTS/openbind_a71ev2a_c1_knitwork_pure_165VWF8.sdf', '/opt/xchem-fragalysis-2/maxwin/BulkDock/OUTPUTS/openbind_a71ev2a_c1_knitwork_pure_1B07PTU.sdf', '/opt/xchem-fragalysis-2/maxwin/BulkDock/OUTPUTS/openbind_a71ev2a_c1_knitwork_pure_1B07UWE.sdf', '/opt/xchem-fragalysis-2/maxwin/openbind-hippo/a71ev2a/openbind_a71ev2a_c1_scaffold_products.sdf', '/opt/xchem-fragalysis-2/maxwin/openbind-hippo/a71ev2a/cycle_01/bulkdock/openbind_a71ev2a_c1_scaffold_products.sdf', '/opt/xchem-fragalysis-2/maxwin/openbind-hippo/a71ev2a/cycle_01/bulkdock/openbind_a71ev2a_c1_scaffolds.sdf']

>  <fragmenstein_runtime>  (211) 
2.421902

$$$$
C46321-P322
     RDKit          3D

 21 23  0  0  0  0  0  0  0  0999 V2000
   20.6415   20.4980   23.2322 C   0  0  0  0  0  0  0  0  0  0  0  0
   21.4096   21.1570   22.0972 C   0  0  0  0  0  0  0  0  0  0  0  0
   22.6974   20.3976   21.7847 C   0  0  0  0  0  0  0  0  0  0  0  0
   23.4677   20.9761   20.6427 C   0  0  0  0  0  0  0  0  0  0  0  0
   22.8829   21.1353   19.4480 N   0  0  0  0  0  0  0  0  0  0  0  0
   23.8846   21.5631   18.6556 N   0  0  0  0  0  0  0  0  0  0  0  0
   25.0853   21.7076   19.2946 C   0  0  0  0  0  0  0  0  0  0  0  0
   26.3422   22.0949   18.8219 C   0  0  0  0  0  0  0  0  0  0  0  0
   27.3671   22.2028   19.7676 C   0  0  0  0  0  0  0  0  0  0  0  0
   27.1390   21.9149   21.1199 C   0  0  0  0  0  0  0  0  0  0  0  0
   28.2106   22.2416   22.1134 C   0  0  0  0  0  0  0  0  0  0  0  0
   28.8229   23.2196   21.9543 O   0  0  0  0  0  0  0  0  0  0  0  0
   28.2384   21.2242   23.2669 N   0  0  0  0  0  0  0  0  0  0  0  0
   29.0984   21.1439   24.4308 C   0  0  1  0  0  0  0  0  0  0  0  0
   28.6327   20.0309   25.3722 C   0  0  0  0  0  0  0  0  0  0  0  0
   29.6042   19.8587   26.5362 C   0  0  0  0  0  0  0  0  0  0  0  0
   31.0379   19.6711   26.0440 C   0  0  0  0  0  0  0  0  0  0  0  0
   31.4610   20.7837   25.1997 N   0  0  0  0  0  0  0  0  0  0  0  0
   30.5741   20.9481   24.0378 C   0  0  0  0  0  0  0  0  0  0  0  0
   25.8800   21.4631   21.5538 C   0  0  0  0  0  0  0  0  0  0  0  0
   24.8364   21.3634   20.6162 C   0  0  0  0  0  0  0  0  0  0  0  0
  1  2  1  0
  2  3  1  0
  3  4  1  0
  4  5  2  0
  5  6  1  0
  6  7  1  0
  7  8  2  0
  8  9  1  0
  9 10  2  0
 10 11  1  0
 11 12  2  0
 11 13  1  0
 14 13  1  6
 14 15  1  0
 15 16  1  0
 16 17  1  0
 17 18  1  0
 18 19  1  0
 10 20  1  0
 20 21  2  0
 21  4  1  0
 21  7  1  0
 19 14  1  0
M  END
>  <ref_pdb>  (212) 
A4351a

>  <subsites>  (212) 
1 - Active Site,5 - A3181/A/202/1

>  <HIPPO Compound ID>  (212) 
48652

>  <energy_score>  (212) 
-20.930371

>  <fragmenstein_mode>  (212) 
expansion

>  <scratch_subdir>  (212) 
/opt/xchem-fragalysis-2/maxwin/BulkDock/SCRATCH/512163/C46321-P322

>  <smiles>  (212) 
CCCc1n[nH]c2ccc(C(=O)N[C@H]3CCCNC3)cc12

>  <alias>  (212) 
C46321-P322

>  <ref_mols>  (212) 
A3181b,A4351a

>  <inspiration_score>  (212) 
None

>  <tags>  (212) 
BulkDock Fragalysis export,fragmenstein_placed,openbind_a71ev2a_c1_scaffolds,openbind_a71ev2a_c1_knitwork_pure

>  <fragmenstein_outcome>  (212) 
acceptable

>  <fragmenstein_error>  (212) 


>  <distance_score>  (212) 
0.671335

>  <inchikey>  (212) 
GOZNAOOIESXJOY-UHFFFAOYSA-N

>  <name>  (212) 
C46321-P322

>  <HIPPO Pose ID>  (212) 
195292

>  <Energy>  (212) 
53.607702

>  <exports>  (212) 
['/opt/xchem-fragalysis-2/maxwin/BulkDock/OUTPUTS/openbind_a71ev2a_c1_knitwork_pure_165VWF8.sdf', '/opt/xchem-fragalysis-2/maxwin/BulkDock/OUTPUTS/openbind_a71ev2a_c1_knitwork_pure_1B07PTU.sdf', '/opt/xchem-fragalysis-2/maxwin/BulkDock/OUTPUTS/openbind_a71ev2a_c1_knitwork_pure_1B07UWE.sdf', '/opt/xchem-fragalysis-2/maxwin/openbind-hippo/a71ev2a/openbind_a71ev2a_c1_scaffold_products.sdf', '/opt/xchem-fragalysis-2/maxwin/openbind-hippo/a71ev2a/cycle_01/bulkdock/openbind_a71ev2a_c1_scaffold_products.sdf', '/opt/xchem-fragalysis-2/maxwin/openbind-hippo/a71ev2a/cycle_01/bulkdock/openbind_a71ev2a_c1_scaffolds.sdf']

>  <fragmenstein_runtime>  (212) 
3.168956

$$$$
C46339-P322
     RDKit          3D

 16 18  0  0  0  0  0  0  0  0999 V2000
   27.3817   21.7200   19.3293 C   0  0  0  0  0  0  0  0  0  0  0  0
   26.2581   21.8142   18.4979 C   0  0  0  0  0  0  0  0  0  0  0  0
   25.0122   21.6976   19.1108 C   0  0  0  0  0  0  0  0  0  0  0  0
   23.7413   21.7208   18.6023 N   0  0  0  0  0  0  0  0  0  0  0  0
   22.7724   21.5595   19.5290 N   0  0  0  0  0  0  0  0  0  0  0  0
   23.4631   21.4223   20.6653 C   0  0  0  0  0  0  0  0  0  0  0  0
   24.8606   21.4947   20.4728 C   0  0  0  0  0  0  0  0  0  0  0  0
   26.0063   21.4274   21.2879 C   0  0  0  0  0  0  0  0  0  0  0  0
   27.2855   21.5233   20.7164 C   0  0  0  0  0  0  0  0  0  0  0  0
   28.4639   21.5855   21.4603 N   0  0  0  0  0  0  0  0  0  0  0  0
   28.5080   21.3720   22.9045 C   0  0  2  0  0  0  0  0  0  0  0  0
   29.8360   21.9366   23.4317 C   0  0  0  0  0  0  0  0  0  0  0  0
   30.0111   21.6129   24.9121 C   0  0  0  0  0  0  0  0  0  0  0  0
   29.8701   20.1145   25.1681 C   0  0  0  0  0  0  0  0  0  0  0  0
   28.5838   19.5890   24.6987 N   0  0  0  0  0  0  0  0  0  0  0  0
   28.4007   19.8735   23.2619 C   0  0  0  0  0  0  0  0  0  0  0  0
  1  2  2  0
  2  3  1  0
  3  4  1  0
  4  5  1  0
  5  6  2  0
  6  7  1  0
  7  8  1  0
  8  9  2  0
  9 10  1  0
 11 10  1  6
 11 12  1  0
 12 13  1  0
 13 14  1  0
 14 15  1  0
 15 16  1  0
  9  1  1  0
 16 11  1  0
  7  3  2  0
M  END
>  <ref_pdb>  (213) 
A4351a

>  <subsites>  (213) 
1 - Active Site,5 - A3181/A/202/1

>  <HIPPO Compound ID>  (213) 
49171

>  <energy_score>  (213) 
-31.837576

>  <fragmenstein_mode>  (213) 
expansion

>  <scratch_subdir>  (213) 
/opt/xchem-fragalysis-2/maxwin/BulkDock/SCRATCH/512163/C46339-P322

>  <smiles>  (213) 
c1cc2[nH]ncc2cc1N[C@@H]1CCCNC1

>  <alias>  (213) 
C46339-P322

>  <ref_mols>  (213) 
A3181b,A4351a

>  <inspiration_score>  (213) 
None

>  <tags>  (213) 
BulkDock Fragalysis export,fragmenstein_placed,openbind_a71ev2a_c1_scaffolds,openbind_a71ev2a_c1_knitwork_pure

>  <fragmenstein_outcome>  (213) 
acceptable

>  <fragmenstein_error>  (213) 


>  <distance_score>  (213) 
0.561327

>  <inchikey>  (213) 
KQQACZGRTAQEIS-UHFFFAOYSA-N

>  <name>  (213) 
C46339-P322

>  <HIPPO Pose ID>  (213) 
195300

>  <Energy>  (213) 
48.733595

>  <exports>  (213) 
['/opt/xchem-fragalysis-2/maxwin/BulkDock/OUTPUTS/openbind_a71ev2a_c1_knitwork_pure_165VWF8.sdf', '/opt/xchem-fragalysis-2/maxwin/BulkDock/OUTPUTS/openbind_a71ev2a_c1_knitwork_pure_1B07PTU.sdf', '/opt/xchem-fragalysis-2/maxwin/BulkDock/OUTPUTS/openbind_a71ev2a_c1_knitwork_pure_1B07UWE.sdf', '/opt/xchem-fragalysis-2/maxwin/openbind-hippo/a71ev2a/openbind_a71ev2a_c1_scaffold_products.sdf', '/opt/xchem-fragalysis-2/maxwin/openbind-hippo/a71ev2a/cycle_01/bulkdock/openbind_a71ev2a_c1_scaffold_products.sdf', '/opt/xchem-fragalysis-2/maxwin/openbind-hippo/a71ev2a/cycle_01/bulkdock/openbind_a71ev2a_c1_scaffolds.sdf']

>  <fragmenstein_runtime>  (213) 
1.561175

$$$$
C46343-P322
     RDKit          3D

 20 22  0  0  0  0  0  0  0  0999 V2000
   22.9304   24.0088   17.6826 C   0  0  0  0  0  0  0  0  0  0  0  0
   23.1851   22.5134   17.6183 C   0  0  0  0  0  0  0  0  0  0  0  0
   23.7154   21.9952   18.8654 N   0  0  0  0  0  0  0  0  0  0  0  0
   22.8616   21.7077   19.8753 N   0  0  0  0  0  0  0  0  0  0  0  0
   23.6729   21.3257   20.8645 C   0  0  0  0  0  0  0  0  0  0  0  0
   25.0350   21.3355   20.4949 C   0  0  0  0  0  0  0  0  0  0  0  0
   26.2561   21.0294   21.1198 C   0  0  0  0  0  0  0  0  0  0  0  0
   27.4447   21.1478   20.3838 C   0  0  0  0  0  0  0  0  0  0  0  0
   27.4215   21.5529   19.0498 C   0  0  0  0  0  0  0  0  0  0  0  0
   28.5809   21.5882   18.2805 N   0  0  0  0  0  0  0  0  0  0  0  0
   30.0737   21.3851   18.6883 C   0  0  0  0  0  0  0  0  0  0  0  0
   30.5571   21.2347   19.7427 O   0  0  0  0  0  0  0  0  0  0  0  0
   30.8835   21.3891   17.3838 C   0  0  2  0  0  0  0  0  0  0  0  0
   32.2520   20.7224   17.5827 C   0  0  0  0  0  0  0  0  0  0  0  0
   33.0970   20.8448   16.3179 C   0  0  0  0  0  0  0  0  0  0  0  0
   33.1886   22.2982   15.8565 C   0  0  0  0  0  0  0  0  0  0  0  0
   31.8623   22.8889   15.6523 N   0  0  0  0  0  0  0  0  0  0  0  0
   31.0665   22.8268   16.8852 C   0  0  0  0  0  0  0  0  0  0  0  0
   26.2150   21.8848   18.4225 C   0  0  0  0  0  0  0  0  0  0  0  0
   25.0354   21.7675   19.1725 C   0  0  0  0  0  0  0  0  0  0  0  0
  1  2  1  0
  2  3  1  0
  3  4  1  0
  4  5  2  0
  5  6  1  0
  6  7  2  0
  7  8  1  0
  8  9  2  0
  9 10  1  0
 10 11  1  0
 11 12  2  0
 13 11  1  1
 13 14  1  0
 14 15  1  0
 15 16  1  0
 16 17  1  0
 17 18  1  0
  9 19  1  0
 19 20  2  0
 20  3  1  0
 20  6  1  0
 18 13  1  0
M  END
>  <ref_pdb>  (214) 
A4351a

>  <subsites>  (214) 
1 - Active Site,5 - A3181/A/202/1

>  <HIPPO Compound ID>  (214) 
59004

>  <energy_score>  (214) 
-24.659043

>  <fragmenstein_mode>  (214) 
expansion

>  <scratch_subdir>  (214) 
/opt/xchem-fragalysis-2/maxwin/BulkDock/SCRATCH/512163/C46343-P322

>  <smiles>  (214) 
CCn1ncc2ccc(NC(=O)[C@@H]3CCCNC3)cc21

>  <alias>  (214) 
C46343-P322

>  <ref_mols>  (214) 
A3181b,A4351a

>  <inspiration_score>  (214) 
None

>  <tags>  (214) 
BulkDock Fragalysis export,fragmenstein_placed,openbind_a71ev2a_c1_scaffolds,openbind_a71ev2a_c1_knitwork_pure

>  <fragmenstein_outcome>  (214) 
acceptable

>  <fragmenstein_error>  (214) 


>  <distance_score>  (214) 
0.349023

>  <inchikey>  (214) 
KUBMOMKAUGJXEF-UHFFFAOYSA-N

>  <name>  (214) 
C46343-P322

>  <HIPPO Pose ID>  (214) 
195302

>  <Energy>  (214) 
30.602384

>  <exports>  (214) 
['/opt/xchem-fragalysis-2/maxwin/BulkDock/OUTPUTS/openbind_a71ev2a_c1_knitwork_pure_165VWF8.sdf', '/opt/xchem-fragalysis-2/maxwin/BulkDock/OUTPUTS/openbind_a71ev2a_c1_knitwork_pure_1B07PTU.sdf', '/opt/xchem-fragalysis-2/maxwin/BulkDock/OUTPUTS/openbind_a71ev2a_c1_knitwork_pure_1B07UWE.sdf', '/opt/xchem-fragalysis-2/maxwin/openbind-hippo/a71ev2a/openbind_a71ev2a_c1_scaffold_products.sdf', '/opt/xchem-fragalysis-2/maxwin/openbind-hippo/a71ev2a/cycle_01/bulkdock/openbind_a71ev2a_c1_scaffold_products.sdf', '/opt/xchem-fragalysis-2/maxwin/openbind-hippo/a71ev2a/cycle_01/bulkdock/openbind_a71ev2a_c1_scaffolds.sdf']

>  <fragmenstein_runtime>  (214) 
1.560874

$$$$
C46353-P322
     RDKit          3D

 17 19  0  0  0  0  0  0  0  0999 V2000
   27.3831   20.9292   20.5727 C   0  0  0  0  0  0  0  0  0  0  0  0
   27.4401   21.6230   19.3605 C   0  0  0  0  0  0  0  0  0  0  0  0
   26.2793   22.0698   18.6971 C   0  0  0  0  0  0  0  0  0  0  0  0
   26.3975   22.8837   17.4271 C   0  0  0  0  0  0  0  0  0  0  0  0
   25.1570   22.8781   16.6342 N   0  0  0  0  0  0  0  0  0  0  0  0
   25.2434   23.7900   15.4762 C   0  0  2  0  0  0  0  0  0  0  0  0
   24.9837   25.2420   15.9121 C   0  0  0  0  0  0  0  0  0  0  0  0
   24.9113   26.1724   14.7020 C   0  0  0  0  0  0  0  0  0  0  0  0
   23.9033   25.6735   13.6700 C   0  0  0  0  0  0  0  0  0  0  0  0
   24.2162   24.3107   13.2489 N   0  0  0  0  0  0  0  0  0  0  0  0
   24.2096   23.3905   14.3915 C   0  0  0  0  0  0  0  0  0  0  0  0
   25.0698   21.7647   19.3447 C   0  0  0  0  0  0  0  0  0  0  0  0
   23.7729   22.0221   18.9786 N   0  0  0  0  0  0  0  0  0  0  0  0
   22.8476   21.5757   19.8541 N   0  0  0  0  0  0  0  0  0  0  0  0
   23.5916   21.0187   20.8144 C   0  0  0  0  0  0  0  0  0  0  0  0
   24.9791   21.0869   20.5518 C   0  0  0  0  0  0  0  0  0  0  0  0
   26.1557   20.6606   21.1884 C   0  0  0  0  0  0  0  0  0  0  0  0
  1  2  2  0
  2  3  1  0
  3  4  1  0
  4  5  1  0
  6  5  1  1
  6  7  1  0
  7  8  1  0
  8  9  1  0
  9 10  1  0
 10 11  1  0
  3 12  2  0
 12 13  1  0
 13 14  1  0
 14 15  2  0
 15 16  1  0
 16 17  2  0
 17  1  1  0
 11  6  1  0
 16 12  1  0
M  END
>  <ref_pdb>  (215) 
A4351a

>  <subsites>  (215) 
1 - Active Site,5 - A3181/A/202/1

>  <HIPPO Compound ID>  (215) 
7211

>  <energy_score>  (215) 
-49.576298

>  <fragmenstein_mode>  (215) 
expansion

>  <scratch_subdir>  (215) 
/opt/xchem-fragalysis-2/maxwin/BulkDock/SCRATCH/512163/C46353-P322

>  <smiles>  (215) 
c1cc(CN[C@@H]2CCCNC2)c2[nH]ncc2c1

>  <alias>  (215) 
C46353-P322

>  <ref_mols>  (215) 
A3181b,A4351a

>  <inspiration_score>  (215) 
None

>  <tags>  (215) 
BulkDock Fragalysis export,fragmenstein_placed,openbind_a71ev2a_c1_scaffolds,openbind_a71ev2a_c1_knitwork_pure

>  <fragmenstein_outcome>  (215) 
acceptable

>  <fragmenstein_error>  (215) 


>  <distance_score>  (215) 
0.310948

>  <inchikey>  (215) 
MZJBBXTUYNVWJM-UHFFFAOYSA-N

>  <name>  (215) 
C46353-P322

>  <HIPPO Pose ID>  (215) 
195307

>  <Energy>  (215) 
38.227001

>  <exports>  (215) 
['/opt/xchem-fragalysis-2/maxwin/BulkDock/OUTPUTS/openbind_a71ev2a_c1_knitwork_pure_165VWF8.sdf', '/opt/xchem-fragalysis-2/maxwin/BulkDock/OUTPUTS/openbind_a71ev2a_c1_knitwork_pure_1B07PTU.sdf', '/opt/xchem-fragalysis-2/maxwin/BulkDock/OUTPUTS/openbind_a71ev2a_c1_knitwork_pure_1B07UWE.sdf', '/opt/xchem-fragalysis-2/maxwin/openbind-hippo/a71ev2a/openbind_a71ev2a_c1_scaffold_products.sdf', '/opt/xchem-fragalysis-2/maxwin/openbind-hippo/a71ev2a/cycle_01/bulkdock/openbind_a71ev2a_c1_scaffold_products.sdf', '/opt/xchem-fragalysis-2/maxwin/openbind-hippo/a71ev2a/cycle_01/bulkdock/openbind_a71ev2a_c1_scaffolds.sdf']

>  <fragmenstein_runtime>  (215) 
1.459519

$$$$
C54664-P617
     RDKit          3D

 22 25  0  0  0  0  0  0  0  0999 V2000
   24.3811   28.2914   12.7599 O   0  0  0  0  0  0  0  0  0  0  0  0
   23.7673   27.4832   13.4374 C   0  0  0  0  0  0  0  0  0  0  0  0
   23.8117   27.3968   14.9316 C   0  0  0  0  0  0  0  0  0  0  0  0
   22.6618   26.4471   15.2992 C   0  0  2  0  0  0  0  0  0  0  0  0
   23.1254   25.3262   16.1526 N   0  0  0  0  0  0  0  0  0  0  0  0
   23.4801   25.7736   17.5015 C   0  0  0  0  0  0  0  0  0  0  0  0
   24.2700   24.6773   18.2174 C   0  0  0  0  0  0  0  0  0  0  0  0
   23.7563   23.2557   17.9062 C   0  0  0  0  0  0  0  0  0  0  0  0
   24.0001   22.3676   19.0408 N   0  0  0  0  0  0  0  0  0  0  0  0
   22.9837   21.9784   19.8515 N   0  0  0  0  0  0  0  0  0  0  0  0
   23.6068   21.3205   20.8327 C   0  0  0  0  0  0  0  0  0  0  0  0
   25.0083   21.2871   20.6759 C   0  0  0  0  0  0  0  0  0  0  0  0
   26.0951   20.7609   21.3966 C   0  0  0  0  0  0  0  0  0  0  0  0
   27.3901   20.9406   20.8954 C   0  0  0  0  0  0  0  0  0  0  0  0
   27.6036   21.6212   19.6981 C   0  0  0  0  0  0  0  0  0  0  0  0
   26.5341   22.1443   18.9654 C   0  0  0  0  0  0  0  0  0  0  0  0
   25.2431   21.9666   19.4851 C   0  0  0  0  0  0  0  0  0  0  0  0
   22.2969   23.3238   17.4565 C   0  0  0  0  0  0  0  0  0  0  0  0
   22.1573   24.2143   16.2154 C   0  0  0  0  0  0  0  0  0  0  0  0
   22.1416   26.0113   13.9299 C   0  0  0  0  0  0  0  0  0  0  0  0
   21.1288   25.3603   13.7162 O   0  0  0  0  0  0  0  0  0  0  0  0
   22.9223   26.5433   12.9591 N   0  0  0  0  0  0  0  0  0  0  0  0
  1  2  2  0
  2  3  1  0
  3  4  1  0
  4  5  1  1
  5  6  1  0
  6  7  1  0
  7  8  1  0
  8  9  1  0
  9 10  1  0
 10 11  2  0
 11 12  1  0
 12 13  2  0
 13 14  1  0
 14 15  2  0
 15 16  1  0
 16 17  2  0
  8 18  1  0
 18 19  1  0
  4 20  1  0
 20 21  2  0
 20 22  1  0
 22  2  1  0
 19  5  1  0
 17  9  1  0
 17 12  1  0
M  END
>  <ref_pdb>  (216) 
A5425a

>  <subsites>  (216) 
1 - Active Site,5 - A3181/A/202/1

>  <HIPPO Compound ID>  (216) 
27143

>  <energy_score>  (216) 
-39.658447

>  <fragmenstein_mode>  (216) 
expansion

>  <scratch_subdir>  (216) 
/opt/xchem-fragalysis-2/maxwin/BulkDock/SCRATCH/512163/C54664-P617

>  <smiles>  (216) 
O=C1C[C@H](N2CCC(n3ncc4ccccc43)CC2)C(=O)N1

>  <alias>  (216) 
C54664-P617

>  <ref_mols>  (216) 
A5425a,A3181b

>  <inspiration_score>  (216) 
None

>  <tags>  (216) 
BulkDock Fragalysis export,fragmenstein_placed,openbind_a71ev2a_c1_scaffolds,openbind_a71ev2a_c1_knitwork_pure

>  <fragmenstein_outcome>  (216) 
acceptable

>  <fragmenstein_error>  (216) 


>  <distance_score>  (216) 
0.542563

>  <inchikey>  (216) 
HMQRCRGWWKHSOQ-UHFFFAOYSA-N

>  <name>  (216) 
C54664-P617

>  <HIPPO Pose ID>  (216) 
195390

>  <Energy>  (216) 
12.083447

>  <exports>  (216) 
['/opt/xchem-fragalysis-2/maxwin/BulkDock/OUTPUTS/openbind_a71ev2a_c1_knitwork_pure_165VWF8.sdf', '/opt/xchem-fragalysis-2/maxwin/BulkDock/OUTPUTS/openbind_a71ev2a_c1_knitwork_pure_1B07PTU.sdf', '/opt/xchem-fragalysis-2/maxwin/BulkDock/OUTPUTS/openbind_a71ev2a_c1_knitwork_pure_1B07UWE.sdf', '/opt/xchem-fragalysis-2/maxwin/openbind-hippo/a71ev2a/openbind_a71ev2a_c1_scaffold_products.sdf', '/opt/xchem-fragalysis-2/maxwin/openbind-hippo/a71ev2a/cycle_01/bulkdock/openbind_a71ev2a_c1_scaffold_products.sdf', '/opt/xchem-fragalysis-2/maxwin/openbind-hippo/a71ev2a/cycle_01/bulkdock/openbind_a71ev2a_c1_scaffolds.sdf']

>  <fragmenstein_runtime>  (216) 
1.765176

$$$$
C56883-P444
     RDKit          3D

 22 23  0  0  0  0  0  0  0  0999 V2000
    3.3738   12.5096   29.8460 C   0  0  0  0  0  0  0  0  0  0  0  0
    3.3369   11.0356   29.4252 C   0  0  2  0  0  0  0  0  0  0  0  0
    3.7246   10.8339   27.9509 C   0  0  0  0  0  0  0  0  0  0  0  0
    5.1203   11.3446   27.5698 C   0  0  0  0  0  0  0  0  0  0  0  0
    5.8757   11.8213   28.3195 O   0  0  0  0  0  0  0  0  0  0  0  0
    5.2086   11.1662   26.0322 N   0  0  0  0  0  0  0  0  0  0  0  0
    6.2049   11.6247   25.0893 C   0  0  0  0  0  0  0  0  0  0  0  0
    7.5323   10.8958   25.1550 C   0  0  0  0  0  0  0  0  0  0  0  0
    8.5948   11.6488   24.3591 C   0  0  0  0  0  0  0  0  0  0  0  0
    8.7871   12.9603   24.9403 N   0  0  0  0  0  0  0  0  0  0  0  0
   10.0063   13.6924   24.6288 C   0  0  0  0  0  0  0  0  0  0  0  0
   10.1222   14.2451   23.2448 C   0  0  0  0  0  0  0  0  0  0  0  0
   11.3305   14.5648   22.5725 C   0  0  0  0  0  0  0  0  0  0  0  0
   10.9258   15.0595   21.3628 C   0  0  0  0  0  0  0  0  0  0  0  0
    9.5710   15.0510   21.3031 O   0  0  0  0  0  0  0  0  0  0  0  0
    9.0583   14.5425   22.4851 N   0  0  0  0  0  0  0  0  0  0  0  0
    7.6270   13.7413   25.3445 C   0  0  0  0  0  0  0  0  0  0  0  0
    6.2847   13.1411   24.9639 C   0  0  0  0  0  0  0  0  0  0  0  0
    1.9265   10.5055   29.6582 C   0  0  0  0  0  0  0  0  0  0  0  0
    1.5776   10.6092   30.9610 F   0  0  0  0  0  0  0  0  0  0  0  0
    1.8070    9.2100   29.3111 F   0  0  0  0  0  0  0  0  0  0  0  0
    1.0155   11.2063   28.9409 F   0  0  0  0  0  0  0  0  0  0  0  0
  2  1  1  6
  2  3  1  0
  3  4  1  0
  4  5  2  0
  4  6  1  0
  6  7  1  0
  7  8  1  0
  8  9  1  0
  9 10  1  0
 10 11  1  0
 11 12  1  0
 12 13  1  0
 13 14  2  0
 14 15  1  0
 15 16  1  0
 10 17  1  0
 17 18  1  0
  2 19  1  0
 19 20  1  0
 19 21  1  0
 19 22  1  0
 18  7  1  0
 16 12  2  0
M  END
>  <ref_pdb>  (217) 
A4712a

>  <subsites>  (217) 
1 - Active Site

>  <HIPPO Compound ID>  (217) 
122137

>  <energy_score>  (217) 
-20.216541

>  <fragmenstein_mode>  (217) 
expansion

>  <scratch_subdir>  (217) 
/opt/xchem-fragalysis-2/maxwin/BulkDock/SCRATCH/512163/C56883-P444

>  <smiles>  (217) 
C[C@H](CC(=O)NC1CCN(Cc2ccon2)CC1)C(F)(F)F

>  <alias>  (217) 
C56883-P444

>  <ref_mols>  (217) 
A1445a,A4712a

>  <inspiration_score>  (217) 
None

>  <tags>  (217) 
BulkDock Fragalysis export,fragmenstein_placed,openbind_a71ev2a_c1_scaffolds,openbind_a71ev2a_c1_knitwork_pure

>  <fragmenstein_outcome>  (217) 
acceptable

>  <fragmenstein_error>  (217) 


>  <distance_score>  (217) 
0.933921

>  <inchikey>  (217) 
CDHYUFIFKQHMBX-UHFFFAOYSA-N

>  <name>  (217) 
C56883-P444

>  <HIPPO Pose ID>  (217) 
195448

>  <Energy>  (217) 
18.082731

>  <exports>  (217) 
['/opt/xchem-fragalysis-2/maxwin/BulkDock/OUTPUTS/openbind_a71ev2a_c1_knitwork_pure_165VWF8.sdf', '/opt/xchem-fragalysis-2/maxwin/BulkDock/OUTPUTS/openbind_a71ev2a_c1_knitwork_pure_1B07PTU.sdf', '/opt/xchem-fragalysis-2/maxwin/BulkDock/OUTPUTS/openbind_a71ev2a_c1_knitwork_pure_1B07UWE.sdf', '/opt/xchem-fragalysis-2/maxwin/openbind-hippo/a71ev2a/openbind_a71ev2a_c1_scaffold_products.sdf', '/opt/xchem-fragalysis-2/maxwin/openbind-hippo/a71ev2a/cycle_01/bulkdock/openbind_a71ev2a_c1_scaffold_products.sdf', '/opt/xchem-fragalysis-2/maxwin/openbind-hippo/a71ev2a/cycle_01/bulkdock/openbind_a71ev2a_c1_scaffolds.sdf']

>  <fragmenstein_runtime>  (217) 
8.034462

$$$$
C57129-P322
     RDKit          3D

 22 24  0  0  0  0  0  0  0  0999 V2000
   16.8551   13.9986    4.0547 O   0  0  0  0  0  0  0  0  0  0  0  0
   17.1798   14.7203    3.1961 C   0  0  0  0  0  0  0  0  0  0  0  0
   16.2545   15.8097    2.6565 C   0  0  0  0  0  0  0  0  0  0  0  0
   16.0553   16.9304    3.6919 C   0  0  2  0  0  0  0  0  0  0  0  0
   14.9071   17.8586    3.2390 C   0  0  0  0  0  0  0  0  0  0  0  0
   15.1776   19.3075    3.6274 C   0  0  0  0  0  0  0  0  0  0  0  0
   16.5056   19.7955    3.0358 C   0  0  0  0  0  0  0  0  0  0  0  0
   17.5632   18.7765    2.9807 N   0  0  0  0  0  0  0  0  0  0  0  0
   17.3426   17.7310    3.9786 C   0  0  0  0  0  0  0  0  0  0  0  0
   18.5382   14.8616    2.4624 N   0  0  0  0  0  0  0  0  0  0  0  0
   19.7457   14.0804    2.5692 C   0  0  0  0  0  0  0  0  0  0  0  0
   20.9729   14.9870    2.5573 C   0  0  0  0  0  0  0  0  0  0  0  0
   22.2755   14.2183    2.7857 C   0  0  0  0  0  0  0  0  0  0  0  0
   22.7293   13.5091    1.5609 C   0  0  0  0  0  0  0  0  0  0  0  0
   22.0984   13.4411    0.4052 N   0  0  0  0  0  0  0  0  0  0  0  0
   22.8887   12.7505   -0.4800 N   0  0  0  0  0  0  0  0  0  0  0  0
   23.9891   12.4069    0.1501 C   0  0  0  0  0  0  0  0  0  0  0  0
   23.9182   12.8451    1.4442 N   0  0  0  0  0  0  0  0  0  0  0  0
   24.9805   12.7172    2.4169 C   0  0  0  0  0  0  0  0  0  0  0  0
   26.0779   11.7474    1.9707 C   0  0  0  0  0  0  0  0  0  0  0  0
   26.4006   11.9129    0.4833 C   0  0  0  0  0  0  0  0  0  0  0  0
   25.1588   11.6617   -0.3752 C   0  0  0  0  0  0  0  0  0  0  0  0
  1  2  2  0
  2  3  1  0
  4  3  1  6
  4  5  1  0
  5  6  1  0
  6  7  1  0
  7  8  1  0
  8  9  1  0
  2 10  1  0
 10 11  1  0
 11 12  1  0
 12 13  1  0
 13 14  1  0
 14 15  2  0
 15 16  1  0
 16 17  2  0
 17 18  1  0
 18 19  1  0
 19 20  1  0
 20 21  1  0
 21 22  1  0
  9  4  1  0
 18 14  1  0
 22 17  1  0
M  END
>  <ref_pdb>  (218) 
A4351a

>  <subsites>  (218) 
1 - Active Site,6 - A0486/A/147/1

>  <HIPPO Compound ID>  (218) 
75326

>  <energy_score>  (218) 
-39.961419

>  <fragmenstein_mode>  (218) 
expansion

>  <scratch_subdir>  (218) 
/opt/xchem-fragalysis-2/maxwin/BulkDock/SCRATCH/512163/C57129-P322

>  <smiles>  (218) 
O=C(C[C@@H]1CCCNC1)NCCCc1nnc2n1CCCC2

>  <alias>  (218) 
C57129-P322

>  <ref_mols>  (218) 
A4351a,A0239a

>  <inspiration_score>  (218) 
None

>  <tags>  (218) 
BulkDock Fragalysis export,fragmenstein_placed,openbind_a71ev2a_c1_scaffolds,openbind_a71ev2a_c1_knitwork_pure

>  <fragmenstein_outcome>  (218) 
acceptable

>  <fragmenstein_error>  (218) 


>  <distance_score>  (218) 
0.692708

>  <inchikey>  (218) 
DXYSIYGLUVEQHU-UHFFFAOYSA-N

>  <name>  (218) 
C57129-P322

>  <HIPPO Pose ID>  (218) 
195498

>  <Energy>  (218) 
-7.873316

>  <exports>  (218) 
['/opt/xchem-fragalysis-2/maxwin/BulkDock/OUTPUTS/openbind_a71ev2a_c1_knitwork_pure_165VWF8.sdf', '/opt/xchem-fragalysis-2/maxwin/BulkDock/OUTPUTS/openbind_a71ev2a_c1_knitwork_pure_1B07PTU.sdf', '/opt/xchem-fragalysis-2/maxwin/BulkDock/OUTPUTS/openbind_a71ev2a_c1_knitwork_pure_1B07UWE.sdf', '/opt/xchem-fragalysis-2/maxwin/openbind-hippo/a71ev2a/openbind_a71ev2a_c1_scaffold_products.sdf', '/opt/xchem-fragalysis-2/maxwin/openbind-hippo/a71ev2a/cycle_01/bulkdock/openbind_a71ev2a_c1_scaffold_products.sdf', '/opt/xchem-fragalysis-2/maxwin/openbind-hippo/a71ev2a/cycle_01/bulkdock/openbind_a71ev2a_c1_scaffolds.sdf']

>  <fragmenstein_runtime>  (218) 
4.346506

$$$$
C57139-P322
     RDKit          3D

 20 22  0  0  0  0  0  0  0  0999 V2000
   21.0376   15.0346    2.4362 C   0  0  0  0  0  0  0  0  0  0  0  0
   22.2965   14.2430    2.7578 C   0  0  0  0  0  0  0  0  0  0  0  0
   22.7486   13.4366    1.5932 C   0  0  0  0  0  0  0  0  0  0  0  0
   22.0562   13.1465    0.5096 N   0  0  0  0  0  0  0  0  0  0  0  0
   22.8471   12.3930   -0.3215 N   0  0  0  0  0  0  0  0  0  0  0  0
   24.0201   12.2472    0.2563 C   0  0  0  0  0  0  0  0  0  0  0  0
   23.9842   12.8624    1.4806 N   0  0  0  0  0  0  0  0  0  0  0  0
   25.0866   12.9147    2.4155 C   0  0  0  0  0  0  0  0  0  0  0  0
   26.2180   11.9514    2.0517 C   0  0  0  0  0  0  0  0  0  0  0  0
   26.4669   11.9320    0.5408 C   0  0  0  0  0  0  0  0  0  0  0  0
   25.2046   11.4580   -0.1977 C   0  0  2  0  0  0  0  0  0  0  0  0
   25.3828   11.5002   -1.7278 C   0  0  0  0  0  0  0  0  0  0  0  0
   26.3443   11.9232   -2.2401 O   0  0  0  0  0  0  0  0  0  0  0  0
   24.1362   10.8059   -2.3440 N   0  0  0  0  0  0  0  0  0  0  0  0
   23.7754   10.5756   -3.7307 C   0  0  2  0  0  0  0  0  0  0  0  0
   22.2533   10.5406   -3.9087 C   0  0  0  0  0  0  0  0  0  0  0  0
   21.6648    9.1295   -3.8083 C   0  0  0  0  0  0  0  0  0  0  0  0
   22.5761    8.1596   -3.0648 C   0  0  0  0  0  0  0  0  0  0  0  0
   23.8814    8.0217   -3.7033 N   0  0  0  0  0  0  0  0  0  0  0  0
   24.4158    9.2759   -4.2613 C   0  0  0  0  0  0  0  0  0  0  0  0
  1  2  1  0
  2  3  1  0
  3  4  2  0
  4  5  1  0
  5  6  2  0
  6  7  1  0
  7  8  1  0
  8  9  1  0
  9 10  1  0
 10 11  1  0
 11 12  1  6
 12 13  2  0
 12 14  1  0
 15 14  1  1
 15 16  1  0
 16 17  1  0
 17 18  1  0
 18 19  1  0
 19 20  1  0
  7  3  1  0
 20 15  1  0
 11  6  1  0
M  END
>  <ref_pdb>  (219) 
A4351a

>  <subsites>  (219) 
1 - Active Site,6 - A0486/A/147/1

>  <HIPPO Compound ID>  (219) 
74188

>  <energy_score>  (219) 
-33.603418

>  <fragmenstein_mode>  (219) 
expansion

>  <scratch_subdir>  (219) 
/opt/xchem-fragalysis-2/maxwin/BulkDock/SCRATCH/512163/C57139-P322

>  <smiles>  (219) 
CCc1nnc2n1CCC[C@@H]2C(=O)N[C@@H]1CCCNC1

>  <alias>  (219) 
C57139-P322

>  <ref_mols>  (219) 
A4351a,A0239a

>  <inspiration_score>  (219) 
None

>  <tags>  (219) 
BulkDock Fragalysis export,fragmenstein_placed,openbind_a71ev2a_c1_scaffolds,openbind_a71ev2a_c1_knitwork_pure

>  <fragmenstein_outcome>  (219) 
acceptable

>  <fragmenstein_error>  (219) 


>  <distance_score>  (219) 
0.497774

>  <inchikey>  (219) 
LPMIQRKPJGOMRG-UHFFFAOYSA-N

>  <name>  (219) 
C57139-P322

>  <HIPPO Pose ID>  (219) 
195501

>  <Energy>  (219) 
30.098804

>  <exports>  (219) 
['/opt/xchem-fragalysis-2/maxwin/BulkDock/OUTPUTS/openbind_a71ev2a_c1_knitwork_pure_165VWF8.sdf', '/opt/xchem-fragalysis-2/maxwin/BulkDock/OUTPUTS/openbind_a71ev2a_c1_knitwork_pure_1B07PTU.sdf', '/opt/xchem-fragalysis-2/maxwin/BulkDock/OUTPUTS/openbind_a71ev2a_c1_knitwork_pure_1B07UWE.sdf', '/opt/xchem-fragalysis-2/maxwin/openbind-hippo/a71ev2a/openbind_a71ev2a_c1_scaffold_products.sdf', '/opt/xchem-fragalysis-2/maxwin/openbind-hippo/a71ev2a/cycle_01/bulkdock/openbind_a71ev2a_c1_scaffold_products.sdf', '/opt/xchem-fragalysis-2/maxwin/openbind-hippo/a71ev2a/cycle_01/bulkdock/openbind_a71ev2a_c1_scaffolds.sdf']

>  <fragmenstein_runtime>  (219) 
2.244993

$$$$
C53768-P257
     RDKit          3D

 15 16  0  0  0  0  0  0  0  0999 V2000
   12.0685   14.1510   25.2150 Cl  0  0  0  0  0  0  0  0  0  0  0  0
   11.9520   14.8213   23.5667 C   0  0  0  0  0  0  0  0  0  0  0  0
   10.6557   15.6147   23.2878 C   0  0  1  0  0  0  0  0  0  0  0  0
   10.9435   16.5665   22.1201 C   0  0  0  0  0  0  0  0  0  0  0  0
   10.5136   15.7909   20.8985 C   0  0  0  0  0  0  0  0  0  0  0  0
    9.2381   15.1588   21.4074 C   0  0  0  0  0  0  0  0  0  0  0  0
    9.5731   14.7392   22.7758 N   0  0  0  0  0  0  0  0  0  0  0  0
    8.3696   14.6491   23.6131 C   0  0  0  0  0  0  0  0  0  0  0  0
    8.5640   13.8821   24.9455 C   0  0  0  0  0  0  0  0  0  0  0  0
    8.7771   12.4179   24.9194 N   0  0  0  0  0  0  0  0  0  0  0  0
    9.5012   11.9626   23.7276 C   0  0  0  0  0  0  0  0  0  0  0  0
    9.8394   10.4854   23.7441 C   0  0  0  0  0  0  0  0  0  0  0  0
    8.7421    9.5919   24.2513 C   0  0  0  0  0  0  0  0  0  0  0  0
    7.7967   10.2329   25.2468 C   0  0  0  0  0  0  0  0  0  0  0  0
    7.5078   11.7031   25.0186 C   0  0  0  0  0  0  0  0  0  0  0  0
  1  2  1  0
  3  2  1  6
  3  4  1  0
  4  5  1  0
  5  6  1  0
  6  7  1  0
  7  8  1  0
  8  9  1  0
  9 10  1  0
 10 11  1  0
 11 12  1  0
 12 13  1  0
 13 14  1  0
 14 15  1  0
  7  3  1  0
 15 10  1  0
M  END
>  <ref_pdb>  (220) 
A3986b

>  <subsites>  (220) 
1 - Active Site

>  <HIPPO Compound ID>  (220) 
55819

>  <energy_score>  (220) 
-20.95702

>  <fragmenstein_mode>  (220) 
expansion

>  <scratch_subdir>  (220) 
/opt/xchem-fragalysis-2/maxwin/BulkDock/SCRATCH/512163/C53768-P257

>  <smiles>  (220) 
ClC[C@H]1CCCN1CCN1CCCCC1

>  <alias>  (220) 
C53768-P257

>  <ref_mols>  (220) 
A3986b,A1140a

>  <inspiration_score>  (220) 
None

>  <tags>  (220) 
BulkDock Fragalysis export,fragmenstein_placed,openbind_a71ev2a_c1_scaffolds,openbind_a71ev2a_c1_knitwork_pure

>  <fragmenstein_outcome>  (220) 
acceptable

>  <fragmenstein_error>  (220) 


>  <distance_score>  (220) 
0.972276

>  <inchikey>  (220) 
VHVSAXROEBTQDV-UHFFFAOYSA-N

>  <name>  (220) 
C53768-P257

>  <HIPPO Pose ID>  (220) 
195866

>  <Energy>  (220) 
66.149466

>  <exports>  (220) 
['/opt/xchem-fragalysis-2/maxwin/BulkDock/OUTPUTS/openbind_a71ev2a_c1_knitwork_pure_165VWF8.sdf', '/opt/xchem-fragalysis-2/maxwin/BulkDock/OUTPUTS/openbind_a71ev2a_c1_knitwork_pure_1B07PTU.sdf', '/opt/xchem-fragalysis-2/maxwin/BulkDock/OUTPUTS/openbind_a71ev2a_c1_knitwork_pure_1B07UWE.sdf', '/opt/xchem-fragalysis-2/maxwin/openbind-hippo/a71ev2a/openbind_a71ev2a_c1_scaffold_products.sdf', '/opt/xchem-fragalysis-2/maxwin/openbind-hippo/a71ev2a/cycle_01/bulkdock/openbind_a71ev2a_c1_scaffold_products.sdf', '/opt/xchem-fragalysis-2/maxwin/openbind-hippo/a71ev2a/cycle_01/bulkdock/openbind_a71ev2a_c1_scaffolds.sdf']

>  <fragmenstein_runtime>  (220) 
2.06818

$$$$
C48170-P128
     RDKit          3D

 10 10  0  0  0  0  0  0  0  0999 V2000
   10.6542   13.3439   23.2399 C   0  0  0  0  0  0  0  0  0  0  0  0
   10.0089   12.0501   23.5866 C   0  0  0  0  0  0  0  0  0  0  0  0
   10.6154   10.9162   23.2497 N   0  0  0  0  0  0  0  0  0  0  0  0
    9.8158    9.9322   23.6685 N   0  0  0  0  0  0  0  0  0  0  0  0
    8.7015   10.4007   24.2836 C   0  0  0  0  0  0  0  0  0  0  0  0
    8.7746   11.7798   24.2249 C   0  0  0  0  0  0  0  0  0  0  0  0
    7.7181   12.7088   24.6883 C   0  0  2  0  0  0  0  0  0  0  0  0
    7.5257   13.9090   23.7725 C   0  0  0  0  0  0  0  0  0  0  0  0
    7.8776   13.0521   26.1370 C   0  0  0  0  0  0  0  0  0  0  0  0
    7.4222   12.3471   27.0385 O   0  0  0  0  0  0  0  0  0  0  0  0
  1  2  1  0
  2  3  2  0
  3  4  1  0
  4  5  1  0
  5  6  2  0
  6  7  1  0
  7  8  1  6
  7  9  1  0
  9 10  2  0
  6  2  1  0
M  END
>  <ref_pdb>  (221) 
A2304a

>  <subsites>  (221) 
1 - Active Site

>  <HIPPO Compound ID>  (221) 
65008

>  <energy_score>  (221) 
-8.190859

>  <fragmenstein_mode>  (221) 
expansion

>  <scratch_subdir>  (221) 
/opt/xchem-fragalysis-2/maxwin/BulkDock/SCRATCH/512163/C48170-P128

>  <smiles>  (221) 
Cc1n[nH]cc1[C@H](C)C=O

>  <alias>  (221) 
C48170-P128

>  <ref_mols>  (221) 
A2304a,A4586a

>  <inspiration_score>  (221) 
None

>  <tags>  (221) 
BulkDock Fragalysis export,fragmenstein_placed,openbind_a71ev2a_c1_scaffolds,openbind_a71ev2a_c1_knitwork_pure

>  <fragmenstein_outcome>  (221) 
acceptable

>  <fragmenstein_error>  (221) 


>  <distance_score>  (221) 
0.897073

>  <inchikey>  (221) 
HKLVJOPELRROKJ-UHFFFAOYSA-N

>  <name>  (221) 
C48170-P128

>  <HIPPO Pose ID>  (221) 
197401

>  <Energy>  (221) 
26.465484

>  <exports>  (221) 
['/opt/xchem-fragalysis-2/maxwin/BulkDock/OUTPUTS/openbind_a71ev2a_c1_knitwork_pure_165VWF8.sdf', '/opt/xchem-fragalysis-2/maxwin/BulkDock/OUTPUTS/openbind_a71ev2a_c1_knitwork_pure_1B07PTU.sdf', '/opt/xchem-fragalysis-2/maxwin/BulkDock/OUTPUTS/openbind_a71ev2a_c1_knitwork_pure_1B07UWE.sdf', '/opt/xchem-fragalysis-2/maxwin/openbind-hippo/a71ev2a/openbind_a71ev2a_c1_scaffold_products.sdf', '/opt/xchem-fragalysis-2/maxwin/openbind-hippo/a71ev2a/cycle_01/bulkdock/openbind_a71ev2a_c1_scaffold_products.sdf', '/opt/xchem-fragalysis-2/maxwin/openbind-hippo/a71ev2a/cycle_01/bulkdock/openbind_a71ev2a_c1_scaffolds.sdf']

>  <fragmenstein_runtime>  (221) 
0.803779

$$$$
C48181-P128
     RDKit          3D

 18 18  0  0  0  0  0  0  0  0999 V2000
    9.1334   14.3812   25.2133 C   0  0  0  0  0  0  0  0  0  0  0  0
    8.1772   13.4903   24.4213 C   0  0  1  0  0  0  0  0  0  0  0  0
    7.6998   14.1492   23.1275 C   0  0  0  0  0  0  0  0  0  0  0  0
    7.4667   13.5385   22.0820 O   0  0  0  0  0  0  0  0  0  0  0  0
    8.8348   12.1895   24.1214 C   0  0  0  0  0  0  0  0  0  0  0  0
    9.9569   12.0482   23.2742 C   0  0  0  0  0  0  0  0  0  0  0  0
   10.2867   10.7817   23.0970 N   0  0  0  0  0  0  0  0  0  0  0  0
    9.3300   10.0995   23.7308 N   0  0  0  0  0  0  0  0  0  0  0  0
    9.3489    8.6734   23.5695 C   0  0  0  0  0  0  0  0  0  0  0  0
    8.5092   10.8988   24.4980 C   0  0  0  0  0  0  0  0  0  0  0  0
    7.5555   10.4447   25.3762 N   0  0  0  0  0  0  0  0  0  0  0  0
    6.8943   11.1368   26.5746 C   0  0  0  0  0  0  0  0  0  0  0  0
    6.9942   12.2281   26.9649 O   0  0  0  0  0  0  0  0  0  0  0  0
    6.1085   10.1898   27.1570 O   0  0  0  0  0  0  0  0  0  0  0  0
    5.3338   10.4942   28.3509 C   0  0  0  0  0  0  0  0  0  0  0  0
    4.4606    9.2523   28.5823 C   0  0  0  0  0  0  0  0  0  0  0  0
    4.4155   11.7105   28.1686 C   0  0  0  0  0  0  0  0  0  0  0  0
    6.2577   10.6787   29.5595 C   0  0  0  0  0  0  0  0  0  0  0  0
  2  1  1  6
  2  3  1  0
  3  4  2  0
  2  5  1  0
  5  6  1  0
  6  7  2  0
  7  8  1  0
  8  9  1  0
  8 10  1  0
 10 11  1  0
 11 12  1  0
 12 13  2  0
 12 14  1  0
 14 15  1  0
 15 16  1  0
 15 17  1  0
 15 18  1  0
 10  5  2  0
M  END
>  <ref_pdb>  (222) 
A2304a

>  <subsites>  (222) 
1 - Active Site

>  <HIPPO Compound ID>  (222) 
14132

>  <energy_score>  (222) 
-41.438717

>  <fragmenstein_mode>  (222) 
expansion

>  <scratch_subdir>  (222) 
/opt/xchem-fragalysis-2/maxwin/BulkDock/SCRATCH/512163/C48181-P128

>  <smiles>  (222) 
C[C@@H](C=O)c1cnn(C)c1NC(=O)OC(C)(C)C

>  <alias>  (222) 
C48181-P128

>  <ref_mols>  (222) 
A2304a,A4586a

>  <inspiration_score>  (222) 
None

>  <tags>  (222) 
BulkDock Fragalysis export,fragmenstein_placed,openbind_a71ev2a_c1_scaffolds,openbind_a71ev2a_c1_knitwork_pure

>  <fragmenstein_outcome>  (222) 
acceptable

>  <fragmenstein_error>  (222) 


>  <distance_score>  (222) 
0.776651

>  <inchikey>  (222) 
YPDKDGPFUNQBCH-UHFFFAOYSA-N

>  <name>  (222) 
C48181-P128

>  <HIPPO Pose ID>  (222) 
197409

>  <Energy>  (222) 
30.658279

>  <exports>  (222) 
['/opt/xchem-fragalysis-2/maxwin/BulkDock/OUTPUTS/openbind_a71ev2a_c1_knitwork_pure_165VWF8.sdf', '/opt/xchem-fragalysis-2/maxwin/BulkDock/OUTPUTS/openbind_a71ev2a_c1_knitwork_pure_1B07PTU.sdf', '/opt/xchem-fragalysis-2/maxwin/BulkDock/OUTPUTS/openbind_a71ev2a_c1_knitwork_pure_1B07UWE.sdf', '/opt/xchem-fragalysis-2/maxwin/openbind-hippo/a71ev2a/openbind_a71ev2a_c1_scaffold_products.sdf', '/opt/xchem-fragalysis-2/maxwin/openbind-hippo/a71ev2a/cycle_01/bulkdock/openbind_a71ev2a_c1_scaffold_products.sdf', '/opt/xchem-fragalysis-2/maxwin/openbind-hippo/a71ev2a/cycle_01/bulkdock/openbind_a71ev2a_c1_scaffolds.sdf']

>  <fragmenstein_runtime>  (222) 
2.285235

$$$$
C58995-P337
     RDKit          3D

 14 15  0  0  0  0  0  0  0  0999 V2000
    7.4924   15.4023   23.2341 C   0  0  0  0  0  0  0  0  0  0  0  0
    8.8233   15.3009   23.7986 N   0  0  0  0  0  0  0  0  0  0  0  0
    9.0224   14.5385   25.0110 C   0  0  0  0  0  0  0  0  0  0  0  0
    8.9724   13.0135   24.8010 C   0  0  0  0  0  0  0  0  0  0  0  0
    9.4590   12.4445   23.4668 C   0  0  0  0  0  0  0  0  0  0  0  0
    9.4593   10.9197   23.4882 C   0  0  0  0  0  0  0  0  0  0  0  0
    8.2304   10.3397   23.9894 N   0  0  0  0  0  0  0  0  0  0  0  0
    7.6602   10.9251   25.1800 C   0  0  0  0  0  0  0  0  0  0  0  0
    7.5873   12.4412   25.1162 C   0  0  0  0  0  0  0  0  0  0  0  0
    9.9079   15.4795   23.0072 C   0  0  0  0  0  0  0  0  0  0  0  0
   11.1816   15.4279   23.3488 N   0  0  0  0  0  0  0  0  0  0  0  0
   11.8486   15.5544   22.1571 C   0  0  0  0  0  0  0  0  0  0  0  0
   10.9471   15.6626   21.1294 C   0  0  0  0  0  0  0  0  0  0  0  0
    9.6970   15.6366   21.6657 O   0  0  0  0  0  0  0  0  0  0  0  0
  1  2  1  0
  2  3  1  0
  3  4  1  0
  4  5  1  0
  5  6  1  0
  6  7  1  0
  7  8  1  0
  8  9  1  0
  2 10  1  0
 10 11  2  0
 11 12  1  0
 12 13  2  0
 13 14  1  0
  9  4  1  0
 14 10  1  0
M  END
>  <ref_pdb>  (223) 
A4214b

>  <subsites>  (223) 
1 - Active Site

>  <HIPPO Compound ID>  (223) 
106545

>  <energy_score>  (223) 
-53.455428

>  <fragmenstein_mode>  (223) 
expansion

>  <scratch_subdir>  (223) 
/opt/xchem-fragalysis-2/maxwin/BulkDock/SCRATCH/512163/C58995-P337

>  <smiles>  (223) 
CN(CC1CCNCC1)c1ncco1

>  <alias>  (223) 
C58995-P337

>  <ref_mols>  (223) 
A3623a,A4214b

>  <inspiration_score>  (223) 
None

>  <tags>  (223) 
BulkDock Fragalysis export,fragmenstein_placed,openbind_a71ev2a_c1_scaffolds,openbind_a71ev2a_c1_knitwork_pure

>  <fragmenstein_outcome>  (223) 
acceptable

>  <fragmenstein_error>  (223) 


>  <distance_score>  (223) 
0.788187

>  <inchikey>  (223) 
XFLRGLNKSUBAIU-UHFFFAOYSA-N

>  <name>  (223) 
C58995-P337

>  <HIPPO Pose ID>  (223) 
197648

>  <Energy>  (223) 
-30.957986

>  <exports>  (223) 
['/opt/xchem-fragalysis-2/maxwin/BulkDock/OUTPUTS/openbind_a71ev2a_c1_knitwork_pure_165VWF8.sdf', '/opt/xchem-fragalysis-2/maxwin/BulkDock/OUTPUTS/openbind_a71ev2a_c1_knitwork_pure_1B07PTU.sdf', '/opt/xchem-fragalysis-2/maxwin/BulkDock/OUTPUTS/openbind_a71ev2a_c1_knitwork_pure_1B07UWE.sdf', '/opt/xchem-fragalysis-2/maxwin/openbind-hippo/a71ev2a/openbind_a71ev2a_c1_scaffold_products.sdf', '/opt/xchem-fragalysis-2/maxwin/openbind-hippo/a71ev2a/cycle_01/bulkdock/openbind_a71ev2a_c1_scaffold_products.sdf', '/opt/xchem-fragalysis-2/maxwin/openbind-hippo/a71ev2a/cycle_01/bulkdock/openbind_a71ev2a_c1_scaffolds.sdf']

>  <fragmenstein_runtime>  (223) 
26.301461

$$$$
C117753-P445
     RDKit          3D

 14 15  0  0  0  0  0  0  0  0999 V2000
    5.8335   12.6134   26.5640 C   0  0  0  0  0  0  0  0  0  0  0  0
    6.7680   13.4936   25.7376 C   0  0  2  0  0  0  0  0  0  0  0  0
    6.0138   14.2271   24.6092 C   0  0  0  0  0  0  0  0  0  0  0  0
    6.3781   15.7315   24.4790 C   0  0  0  0  0  0  0  0  0  0  0  0
    5.2165   16.0313   25.3479 N   0  0  0  0  0  0  0  0  0  0  0  0
    4.5817   14.7948   24.8418 C   0  0  0  0  0  0  0  0  0  0  0  0
    7.9846   12.8047   25.2136 N   0  0  0  0  0  0  0  0  0  0  0  0
    9.0513   13.7207   24.7843 C   0  0  0  0  0  0  0  0  0  0  0  0
    8.0060   11.5233   24.7388 C   0  0  0  0  0  0  0  0  0  0  0  0
    7.2714   10.3834   25.1327 C   0  0  0  0  0  0  0  0  0  0  0  0
    7.6875    9.2648   24.5413 N   0  0  0  0  0  0  0  0  0  0  0  0
    8.6768    9.6891   23.7394 N   0  0  0  0  0  0  0  0  0  0  0  0
    9.4354    8.7454   22.9642 C   0  0  0  0  0  0  0  0  0  0  0  0
    8.8816   11.0345   23.7947 C   0  0  0  0  0  0  0  0  0  0  0  0
  2  1  1  6
  2  3  1  0
  3  4  1  0
  4  5  1  0
  5  6  1  0
  2  7  1  0
  7  8  1  0
  7  9  1  0
  9 10  1  0
 10 11  2  0
 11 12  1  0
 12 13  1  0
 12 14  1  0
  6  3  1  0
 14  9  2  0
M  END
>  <ref_pdb>  (224) 
A4715a

>  <subsites>  (224) 
1 - Active Site

>  <HIPPO Compound ID>  (224) 
50569

>  <energy_score>  (224) 
-19.010339

>  <fragmenstein_mode>  (224) 
expansion

>  <scratch_subdir>  (224) 
/opt/xchem-fragalysis-2/maxwin/BulkDock/SCRATCH/512164/C117753-P445

>  <smiles>  (224) 
C[C@H](C1CNC1)N(C)c1cnn(C)c1

>  <alias>  (224) 
C117753-P445

>  <ref_mols>  (224) 
A0556a,A4715a

>  <inspiration_score>  (224) 
None

>  <tags>  (224) 
BulkDock Fragalysis export,fragmenstein_placed,openbind_a71ev2a_c1_scaffolds,openbind_a71ev2a_c1_knitwork_pure

>  <fragmenstein_outcome>  (224) 
acceptable

>  <fragmenstein_error>  (224) 


>  <distance_score>  (224) 
0.507041

>  <inchikey>  (224) 
RILULXWKHGGBSE-UHFFFAOYSA-N

>  <name>  (224) 
C117753-P445

>  <HIPPO Pose ID>  (224) 
200934

>  <Energy>  (224) 
33.150327

>  <exports>  (224) 
['/opt/xchem-fragalysis-2/maxwin/BulkDock/OUTPUTS/openbind_a71ev2a_c1_knitwork_pure_165VWF8.sdf', '/opt/xchem-fragalysis-2/maxwin/BulkDock/OUTPUTS/openbind_a71ev2a_c1_knitwork_pure_1B07PTU.sdf', '/opt/xchem-fragalysis-2/maxwin/BulkDock/OUTPUTS/openbind_a71ev2a_c1_knitwork_pure_1B07UWE.sdf', '/opt/xchem-fragalysis-2/maxwin/openbind-hippo/a71ev2a/openbind_a71ev2a_c1_scaffold_products.sdf', '/opt/xchem-fragalysis-2/maxwin/openbind-hippo/a71ev2a/cycle_01/bulkdock/openbind_a71ev2a_c1_scaffold_products.sdf', '/opt/xchem-fragalysis-2/maxwin/openbind-hippo/a71ev2a/cycle_01/bulkdock/openbind_a71ev2a_c1_scaffolds.sdf']

>  <fragmenstein_runtime>  (224) 
1.04579

$$$$
C117762-P445
     RDKit          3D

 14 15  0  0  0  0  0  0  0  0999 V2000
    9.4449    9.4540   23.3475 C   0  0  0  0  0  0  0  0  0  0  0  0
    8.4995   10.2681   24.0763 N   0  0  0  0  0  0  0  0  0  0  0  0
    7.5121    9.6322   24.7539 N   0  0  0  0  0  0  0  0  0  0  0  0
    6.8275   10.6062   25.3436 C   0  0  0  0  0  0  0  0  0  0  0  0
    7.3700   11.8710   25.0866 C   0  0  0  0  0  0  0  0  0  0  0  0
    6.8977   13.1582   25.6270 C   0  0  0  0  0  0  0  0  0  0  0  0
    7.9338   14.0245   25.8050 F   0  0  0  0  0  0  0  0  0  0  0  0
    6.3264   12.9968   26.8443 F   0  0  0  0  0  0  0  0  0  0  0  0
    6.0001   13.7810   24.8331 F   0  0  0  0  0  0  0  0  0  0  0  0
    8.4660   11.6264   24.2735 C   0  0  0  0  0  0  0  0  0  0  0  0
    9.3961   12.8189   23.8521 C   0  0  0  0  0  0  0  0  0  0  0  0
   10.4088   12.7175   22.7283 C   0  0  0  0  0  0  0  0  0  0  0  0
    9.9178   13.9875   22.1618 N   0  0  0  0  0  0  0  0  0  0  0  0
    8.6877   13.8579   22.9429 C   0  0  0  0  0  0  0  0  0  0  0  0
  1  2  1  0
  2  3  1  0
  3  4  2  0
  4  5  1  0
  5  6  1  0
  6  7  1  0
  6  8  1  0
  6  9  1  0
  5 10  2  0
 10 11  1  0
 11 12  1  0
 12 13  1  0
 13 14  1  0
 10  2  1  0
 14 11  1  0
M  END
>  <ref_pdb>  (225) 
A4715a

>  <subsites>  (225) 
1 - Active Site

>  <HIPPO Compound ID>  (225) 
124015

>  <energy_score>  (225) 
-21.530985

>  <fragmenstein_mode>  (225) 
expansion

>  <scratch_subdir>  (225) 
/opt/xchem-fragalysis-2/maxwin/BulkDock/SCRATCH/512164/C117762-P445

>  <smiles>  (225) 
Cn1ncc(C(F)(F)F)c1C1CNC1

>  <alias>  (225) 
C117762-P445

>  <ref_mols>  (225) 
A0556a,A4715a

>  <inspiration_score>  (225) 
None

>  <tags>  (225) 
BulkDock Fragalysis export,fragmenstein_placed,openbind_a71ev2a_c1_scaffolds,openbind_a71ev2a_c1_knitwork_pure

>  <fragmenstein_outcome>  (225) 
acceptable

>  <fragmenstein_error>  (225) 


>  <distance_score>  (225) 
0.957195

>  <inchikey>  (225) 
XIOYKRXGPYNPFZ-UHFFFAOYSA-N

>  <name>  (225) 
C117762-P445

>  <HIPPO Pose ID>  (225) 
200938

>  <Energy>  (225) 
56.923703

>  <exports>  (225) 
['/opt/xchem-fragalysis-2/maxwin/BulkDock/OUTPUTS/openbind_a71ev2a_c1_knitwork_pure_165VWF8.sdf', '/opt/xchem-fragalysis-2/maxwin/BulkDock/OUTPUTS/openbind_a71ev2a_c1_knitwork_pure_1B07PTU.sdf', '/opt/xchem-fragalysis-2/maxwin/BulkDock/OUTPUTS/openbind_a71ev2a_c1_knitwork_pure_1B07UWE.sdf', '/opt/xchem-fragalysis-2/maxwin/openbind-hippo/a71ev2a/openbind_a71ev2a_c1_scaffold_products.sdf', '/opt/xchem-fragalysis-2/maxwin/openbind-hippo/a71ev2a/cycle_01/bulkdock/openbind_a71ev2a_c1_scaffold_products.sdf', '/opt/xchem-fragalysis-2/maxwin/openbind-hippo/a71ev2a/cycle_01/bulkdock/openbind_a71ev2a_c1_scaffolds.sdf']

>  <fragmenstein_runtime>  (225) 
2.140045

$$$$
C715-P557
     RDKit          3D

 12 13  0  0  0  0  0  0  0  0999 V2000
    9.3132   10.8079   23.6109 C   0  0  0  0  0  0  0  0  0  0  0  0
    8.4555   10.6281   24.6785 C   0  0  0  0  0  0  0  0  0  0  0  0
    7.9768   11.6427   25.4234 N   0  0  0  0  0  0  0  0  0  0  0  0
    8.3455   12.8954   25.0387 C   0  0  0  0  0  0  0  0  0  0  0  0
    9.1918   13.2018   23.9690 C   0  0  0  0  0  0  0  0  0  0  0  0
    9.5099   14.5238   23.6680 N   0  0  0  0  0  0  0  0  0  0  0  0
   10.8007   14.9902   24.1831 C   0  0  0  0  0  0  0  0  0  0  0  0
   11.9133   14.8299   23.1533 C   0  0  0  0  0  0  0  0  0  0  0  0
   11.5563   15.5322   21.8494 C   0  0  0  0  0  0  0  0  0  0  0  0
   10.2332   15.0033   21.3100 C   0  0  0  0  0  0  0  0  0  0  0  0
    9.1157   15.0594   22.3507 C   0  0  0  0  0  0  0  0  0  0  0  0
    9.6870   12.1085   23.2669 C   0  0  0  0  0  0  0  0  0  0  0  0
  1  2  2  0
  2  3  1  0
  3  4  2  0
  4  5  1  0
  5  6  1  0
  6  7  1  0
  7  8  1  0
  8  9  1  0
  9 10  1  0
 10 11  1  0
  5 12  2  0
 12  1  1  0
 11  6  1  0
M  END
>  <ref_pdb>  (226) 
A5079a

>  <subsites>  (226) 
1 - Active Site

>  <HIPPO Compound ID>  (226) 
42918

>  <energy_score>  (226) 
-11.420581

>  <fragmenstein_mode>  (226) 
expansion

>  <scratch_subdir>  (226) 
/opt/xchem-fragalysis-2/maxwin/BulkDock/SCRATCH/512164/C715-P557

>  <smiles>  (226) 
c1cncc(N2CCCCC2)c1

>  <alias>  (226) 
C715-P557

>  <ref_mols>  (226) 
A5079a,A2629a

>  <inspiration_score>  (226) 
None

>  <tags>  (226) 
BulkDock Fragalysis export,fragmenstein_placed,openbind_a71ev2a_c1_scaffolds,openbind_a71ev2a_c1_knitwork_pure

>  <fragmenstein_outcome>  (226) 
acceptable

>  <fragmenstein_error>  (226) 


>  <distance_score>  (226) 
0.917256

>  <inchikey>  (226) 
LTOUESXDKSJFOU-UHFFFAOYSA-N

>  <name>  (226) 
C715-P557

>  <HIPPO Pose ID>  (226) 
201698

>  <Energy>  (226) 
44.105599

>  <exports>  (226) 
['/opt/xchem-fragalysis-2/maxwin/BulkDock/OUTPUTS/openbind_a71ev2a_c1_knitwork_pure_165VWF8.sdf', '/opt/xchem-fragalysis-2/maxwin/BulkDock/OUTPUTS/openbind_a71ev2a_c1_knitwork_pure_1B07PTU.sdf', '/opt/xchem-fragalysis-2/maxwin/BulkDock/OUTPUTS/openbind_a71ev2a_c1_knitwork_pure_1B07UWE.sdf', '/opt/xchem-fragalysis-2/maxwin/openbind-hippo/a71ev2a/openbind_a71ev2a_c1_scaffold_products.sdf', '/opt/xchem-fragalysis-2/maxwin/openbind-hippo/a71ev2a/cycle_01/bulkdock/openbind_a71ev2a_c1_scaffold_products.sdf', '/opt/xchem-fragalysis-2/maxwin/openbind-hippo/a71ev2a/cycle_01/bulkdock/openbind_a71ev2a_c1_scaffolds.sdf']

>  <fragmenstein_runtime>  (226) 
7.245266

$$$$
C9536-P122
     RDKit          3D

  9  9  0  0  0  0  0  0  0  0999 V2000
   11.5017   11.1366   22.7910 C   0  0  0  0  0  0  0  0  0  0  0  0
   10.4156   10.1474   23.1876 C   0  0  1  0  0  0  0  0  0  0  0  0
   11.1072    8.9461   23.7463 C   0  0  0  0  0  0  0  0  0  0  0  0
   10.8546    7.7896   23.4319 O   0  0  0  0  0  0  0  0  0  0  0  0
    9.4154   10.7508   24.0681 N   0  0  0  0  0  0  0  0  0  0  0  0
    8.9407   12.0422   24.0114 C   0  0  0  0  0  0  0  0  0  0  0  0
    7.8456   12.1029   24.8388 C   0  0  0  0  0  0  0  0  0  0  0  0
    7.7504   10.8201   25.3813 C   0  0  0  0  0  0  0  0  0  0  0  0
    8.7054   10.0027   24.9300 N   0  0  0  0  0  0  0  0  0  0  0  0
  2  1  1  1
  2  3  1  0
  3  4  2  0
  2  5  1  0
  5  6  1  0
  6  7  2  0
  7  8  1  0
  8  9  2  0
  9  5  1  0
M  END
>  <ref_pdb>  (227) 
A1775a

>  <subsites>  (227) 
1 - Active Site

>  <HIPPO Compound ID>  (227) 
49748

>  <energy_score>  (227) 
-5.519971

>  <fragmenstein_mode>  (227) 
expansion

>  <scratch_subdir>  (227) 
/opt/xchem-fragalysis-2/maxwin/BulkDock/SCRATCH/512164/C9536-P122

>  <smiles>  (227) 
C[C@@H](C=O)n1cccn1

>  <alias>  (227) 
C9536-P122

>  <ref_mols>  (227) 
A1775a,A0556a

>  <inspiration_score>  (227) 
None

>  <tags>  (227) 
BulkDock Fragalysis export,fragmenstein_placed,openbind_a71ev2a_c1_scaffolds,openbind_a71ev2a_c1_knitwork_pure

>  <fragmenstein_outcome>  (227) 
acceptable

>  <fragmenstein_error>  (227) 


>  <distance_score>  (227) 
0.999823

>  <inchikey>  (227) 
YZQNRVOHGUHPKI-UHFFFAOYSA-N

>  <name>  (227) 
C9536-P122

>  <HIPPO Pose ID>  (227) 
202655

>  <Energy>  (227) 
15.857151

>  <exports>  (227) 
['/opt/xchem-fragalysis-2/maxwin/BulkDock/OUTPUTS/openbind_a71ev2a_c1_knitwork_pure_165VWF8.sdf', '/opt/xchem-fragalysis-2/maxwin/BulkDock/OUTPUTS/openbind_a71ev2a_c1_knitwork_pure_1B07PTU.sdf', '/opt/xchem-fragalysis-2/maxwin/BulkDock/OUTPUTS/openbind_a71ev2a_c1_knitwork_pure_1B07UWE.sdf', '/opt/xchem-fragalysis-2/maxwin/openbind-hippo/a71ev2a/openbind_a71ev2a_c1_scaffold_products.sdf', '/opt/xchem-fragalysis-2/maxwin/openbind-hippo/a71ev2a/cycle_01/bulkdock/openbind_a71ev2a_c1_scaffold_products.sdf', '/opt/xchem-fragalysis-2/maxwin/openbind-hippo/a71ev2a/cycle_01/bulkdock/openbind_a71ev2a_c1_scaffolds.sdf']

>  <fragmenstein_runtime>  (227) 
0.522118

$$$$
C46023-P304
     RDKit          3D

 19 21  0  0  0  0  0  0  0  0999 V2000
   12.1074   16.3528   21.0954 C   0  0  0  0  0  0  0  0  0  0  0  0
   11.4941   15.0160   21.4627 C   0  0  0  0  0  0  0  0  0  0  0  0
   11.6147   14.7610   22.9669 C   0  0  0  0  0  0  0  0  0  0  0  0
   10.5452   15.5125   23.7536 C   0  0  0  0  0  0  0  0  0  0  0  0
    9.1755   15.2208   23.3027 N   0  0  0  0  0  0  0  0  0  0  0  0
    8.7739   13.8021   23.4347 C   0  0  0  0  0  0  0  0  0  0  0  0
    8.8380   13.2926   24.8621 C   0  0  0  0  0  0  0  0  0  0  0  0
    9.7818   13.4311   25.6361 O   0  0  0  0  0  0  0  0  0  0  0  0
    7.7071   12.4787   25.3200 C   0  0  0  0  0  0  0  0  0  0  0  0
    7.6801   11.1096   25.0101 C   0  0  0  0  0  0  0  0  0  0  0  0
    6.7273   10.2896   25.6155 C   0  0  0  0  0  0  0  0  0  0  0  0
    5.8415   10.8549   26.5204 C   0  0  0  0  0  0  0  0  0  0  0  0
    5.8666   12.2235   26.7906 C   0  0  0  0  0  0  0  0  0  0  0  0
    6.7842   13.0617   26.1891 C   0  0  0  0  0  0  0  0  0  0  0  0
    4.9141   12.5370   27.8949 C   0  0  0  0  0  0  0  0  0  0  0  0
    4.1862   11.1881   28.0468 C   0  0  0  0  0  0  0  0  0  0  0  0
    5.0370   10.1556   27.4444 N   0  0  0  0  0  0  0  0  0  0  0  0
    9.0487   15.6563   21.8977 C   0  0  0  0  0  0  0  0  0  0  0  0
   10.0425   14.9600   20.9655 C   0  0  0  0  0  0  0  0  0  0  0  0
  1  2  1  0
  2  3  1  0
  3  4  1  0
  4  5  1  0
  5  6  1  0
  6  7  1  0
  7  8  2  0
  7  9  1  0
  9 10  2  0
 10 11  1  0
 11 12  2  0
 12 13  1  0
 13 14  2  0
 13 15  1  0
 15 16  1  0
 16 17  1  0
  5 18  1  0
 18 19  1  0
 19  2  1  0
 14  9  1  0
 17 12  1  0
M  END
>  <ref_pdb>  (228) 
A4321a

>  <subsites>  (228) 
1 - Active Site

>  <HIPPO Compound ID>  (228) 
52583

>  <energy_score>  (228) 
-31.538099

>  <fragmenstein_mode>  (228) 
expansion

>  <scratch_subdir>  (228) 
/opt/xchem-fragalysis-2/maxwin/BulkDock/SCRATCH/512164/C46023-P304

>  <smiles>  (228) 
CC1CCN(CC(=O)c2ccc3c(c2)CCN3)CC1

>  <alias>  (228) 
C46023-P304

>  <ref_mols>  (228) 
A4321a,A1778a

>  <inspiration_score>  (228) 
None

>  <tags>  (228) 
BulkDock Fragalysis export,fragmenstein_placed,openbind_a71ev2a_c1_scaffolds,openbind_a71ev2a_c1_knitwork_pure

>  <fragmenstein_outcome>  (228) 
acceptable

>  <fragmenstein_error>  (228) 


>  <distance_score>  (228) 
0.693927

>  <inchikey>  (228) 
DLHJBIDRLSJSTJ-UHFFFAOYSA-N

>  <name>  (228) 
C46023-P304

>  <HIPPO Pose ID>  (228) 
203359

>  <Energy>  (228) 
90.872076

>  <exports>  (228) 
['/opt/xchem-fragalysis-2/maxwin/BulkDock/OUTPUTS/openbind_a71ev2a_c1_knitwork_pure_165VWF8.sdf', '/opt/xchem-fragalysis-2/maxwin/BulkDock/OUTPUTS/openbind_a71ev2a_c1_knitwork_pure_1B07PTU.sdf', '/opt/xchem-fragalysis-2/maxwin/BulkDock/OUTPUTS/openbind_a71ev2a_c1_knitwork_pure_1B07UWE.sdf', '/opt/xchem-fragalysis-2/maxwin/openbind-hippo/a71ev2a/openbind_a71ev2a_c1_scaffold_products.sdf', '/opt/xchem-fragalysis-2/maxwin/openbind-hippo/a71ev2a/cycle_01/bulkdock/openbind_a71ev2a_c1_scaffold_products.sdf', '/opt/xchem-fragalysis-2/maxwin/openbind-hippo/a71ev2a/cycle_01/bulkdock/openbind_a71ev2a_c1_scaffolds.sdf']

>  <fragmenstein_runtime>  (228) 
8.356179

$$$$
C46024-P304
     RDKit          3D

 19 21  0  0  0  0  0  0  0  0999 V2000
   10.4004   15.9335   19.4166 C   0  0  0  0  0  0  0  0  0  0  0  0
   10.4876   15.3007   20.8023 C   0  0  1  0  0  0  0  0  0  0  0  0
   11.8004   15.7060   21.4752 C   0  0  0  0  0  0  0  0  0  0  0  0
   11.8550   15.1660   22.8964 C   0  0  0  0  0  0  0  0  0  0  0  0
   10.6240   15.6308   23.6677 C   0  0  0  0  0  0  0  0  0  0  0  0
    9.3510   15.1842   23.0789 N   0  0  0  0  0  0  0  0  0  0  0  0
    9.1203   13.7263   23.1500 C   0  0  0  0  0  0  0  0  0  0  0  0
    9.1788   13.1794   24.5726 C   0  0  0  0  0  0  0  0  0  0  0  0
   10.1490   13.2537   25.3245 O   0  0  0  0  0  0  0  0  0  0  0  0
    8.0251   12.4131   25.0592 C   0  0  0  0  0  0  0  0  0  0  0  0
    7.9983   11.0232   24.8546 C   0  0  0  0  0  0  0  0  0  0  0  0
    6.9874   10.2577   25.4378 C   0  0  0  0  0  0  0  0  0  0  0  0
    6.0699   10.8914   26.2568 C   0  0  0  0  0  0  0  0  0  0  0  0
    6.0862   12.2786   26.4144 C   0  0  0  0  0  0  0  0  0  0  0  0
    7.0549   13.0649   25.8211 C   0  0  0  0  0  0  0  0  0  0  0  0
    4.9451   12.6927   27.2793 C   0  0  0  0  0  0  0  0  0  0  0  0
    4.5447   11.3305   27.8752 C   0  0  0  0  0  0  0  0  0  0  0  0
    4.9935   10.2936   26.9359 N   0  0  0  0  0  0  0  0  0  0  0  0
    9.2714   15.6700   21.6795 C   0  0  0  0  0  0  0  0  0  0  0  0
  2  1  1  6
  2  3  1  0
  3  4  1  0
  4  5  1  0
  5  6  1  0
  6  7  1  0
  7  8  1  0
  8  9  2  0
  8 10  1  0
 10 11  2  0
 11 12  1  0
 12 13  2  0
 13 14  1  0
 14 15  2  0
 14 16  1  0
 16 17  1  0
 17 18  1  0
  6 19  1  0
 19  2  1  0
 15 10  1  0
 18 13  1  0
M  END
>  <ref_pdb>  (229) 
A4321a

>  <subsites>  (229) 
1 - Active Site

>  <HIPPO Compound ID>  (229) 
58943

>  <energy_score>  (229) 
-33.579607

>  <fragmenstein_mode>  (229) 
expansion

>  <scratch_subdir>  (229) 
/opt/xchem-fragalysis-2/maxwin/BulkDock/SCRATCH/512164/C46024-P304

>  <smiles>  (229) 
C[C@H]1CCCN(CC(=O)c2ccc3c(c2)CCN3)C1

>  <alias>  (229) 
C46024-P304

>  <ref_mols>  (229) 
A4321a,A1778a

>  <inspiration_score>  (229) 
None

>  <tags>  (229) 
BulkDock Fragalysis export,fragmenstein_placed,openbind_a71ev2a_c1_scaffolds,openbind_a71ev2a_c1_knitwork_pure

>  <fragmenstein_outcome>  (229) 
acceptable

>  <fragmenstein_error>  (229) 


>  <distance_score>  (229) 
0.717127

>  <inchikey>  (229) 
RVENREFGGYUNIA-UHFFFAOYSA-N

>  <name>  (229) 
C46024-P304

>  <HIPPO Pose ID>  (229) 
203360

>  <Energy>  (229) 
86.128125

>  <exports>  (229) 
['/opt/xchem-fragalysis-2/maxwin/BulkDock/OUTPUTS/openbind_a71ev2a_c1_knitwork_pure_165VWF8.sdf', '/opt/xchem-fragalysis-2/maxwin/BulkDock/OUTPUTS/openbind_a71ev2a_c1_knitwork_pure_1B07PTU.sdf', '/opt/xchem-fragalysis-2/maxwin/BulkDock/OUTPUTS/openbind_a71ev2a_c1_knitwork_pure_1B07UWE.sdf', '/opt/xchem-fragalysis-2/maxwin/openbind-hippo/a71ev2a/openbind_a71ev2a_c1_scaffold_products.sdf', '/opt/xchem-fragalysis-2/maxwin/openbind-hippo/a71ev2a/cycle_01/bulkdock/openbind_a71ev2a_c1_scaffold_products.sdf', '/opt/xchem-fragalysis-2/maxwin/openbind-hippo/a71ev2a/cycle_01/bulkdock/openbind_a71ev2a_c1_scaffolds.sdf']

>  <fragmenstein_runtime>  (229) 
5.588918

$$$$
C46025-P304
     RDKit          3D

 19 21  0  0  0  0  0  0  0  0999 V2000
    7.5741   15.6189   21.9434 C   0  0  0  0  0  0  0  0  0  0  0  0
    9.0712   15.8101   22.1855 C   0  0  2  0  0  0  0  0  0  0  0  0
    9.9316   15.4512   20.9630 C   0  0  0  0  0  0  0  0  0  0  0  0
   11.4030   15.7634   21.2288 C   0  0  0  0  0  0  0  0  0  0  0  0
   11.8700   15.1514   22.5425 C   0  0  0  0  0  0  0  0  0  0  0  0
   10.9112   15.4675   23.6893 C   0  0  0  0  0  0  0  0  0  0  0  0
    9.5068   15.1157   23.4137 N   0  0  0  0  0  0  0  0  0  0  0  0
    9.2677   13.6614   23.3881 C   0  0  0  0  0  0  0  0  0  0  0  0
    9.2591   13.1088   24.8043 C   0  0  0  0  0  0  0  0  0  0  0  0
   10.1697   13.2251   25.6208 O   0  0  0  0  0  0  0  0  0  0  0  0
    8.0788   12.3396   25.2156 C   0  0  0  0  0  0  0  0  0  0  0  0
    8.0186   10.9683   24.9218 C   0  0  0  0  0  0  0  0  0  0  0  0
    6.9763   10.2001   25.4406 C   0  0  0  0  0  0  0  0  0  0  0  0
    6.0643   10.8090   26.2846 C   0  0  0  0  0  0  0  0  0  0  0  0
    6.1063   12.1843   26.5183 C   0  0  0  0  0  0  0  0  0  0  0  0
    7.1037   12.9760   25.9862 C   0  0  0  0  0  0  0  0  0  0  0  0
    4.9682   12.5720   27.3995 C   0  0  0  0  0  0  0  0  0  0  0  0
    4.5397   11.1871   27.9211 C   0  0  0  0  0  0  0  0  0  0  0  0
    4.9786   10.1974   26.9314 N   0  0  0  0  0  0  0  0  0  0  0  0
  2  1  1  6
  2  3  1  0
  3  4  1  0
  4  5  1  0
  5  6  1  0
  6  7  1  0
  7  8  1  0
  8  9  1  0
  9 10  2  0
  9 11  1  0
 11 12  2  0
 12 13  1  0
 13 14  2  0
 14 15  1  0
 15 16  2  0
 15 17  1  0
 17 18  1  0
 18 19  1  0
  7  2  1  0
 16 11  1  0
 19 14  1  0
M  END
>  <ref_pdb>  (230) 
A4321a

>  <subsites>  (230) 
1 - Active Site

>  <HIPPO Compound ID>  (230) 
46025

>  <energy_score>  (230) 
-50.858301

>  <fragmenstein_mode>  (230) 
expansion

>  <scratch_subdir>  (230) 
/opt/xchem-fragalysis-2/maxwin/BulkDock/SCRATCH/512164/C46025-P304

>  <smiles>  (230) 
C[C@@H]1CCCCN1CC(=O)c1ccc2c(c1)CCN2

>  <alias>  (230) 
C46025-P304

>  <ref_mols>  (230) 
A4321a,A1778a

>  <inspiration_score>  (230) 
None

>  <tags>  (230) 
BulkDock Fragalysis export,fragmenstein_placed,openbind_a71ev2a_c1_scaffolds,openbind_a71ev2a_c1_knitwork_pure

>  <fragmenstein_outcome>  (230) 
acceptable

>  <fragmenstein_error>  (230) 


>  <distance_score>  (230) 
0.873929

>  <inchikey>  (230) 
BVLLTLFJWFLOHJ-UHFFFAOYSA-N

>  <name>  (230) 
C46025-P304

>  <HIPPO Pose ID>  (230) 
203361

>  <Energy>  (230) 
84.843322

>  <exports>  (230) 
['/opt/xchem-fragalysis-2/maxwin/BulkDock/OUTPUTS/openbind_a71ev2a_c1_knitwork_pure_165VWF8.sdf', '/opt/xchem-fragalysis-2/maxwin/BulkDock/OUTPUTS/openbind_a71ev2a_c1_knitwork_pure_1B07PTU.sdf', '/opt/xchem-fragalysis-2/maxwin/BulkDock/OUTPUTS/openbind_a71ev2a_c1_knitwork_pure_1B07UWE.sdf', '/opt/xchem-fragalysis-2/maxwin/openbind-hippo/a71ev2a/openbind_a71ev2a_c1_scaffold_products.sdf', '/opt/xchem-fragalysis-2/maxwin/openbind-hippo/a71ev2a/cycle_01/bulkdock/openbind_a71ev2a_c1_scaffold_products.sdf', '/opt/xchem-fragalysis-2/maxwin/openbind-hippo/a71ev2a/cycle_01/bulkdock/openbind_a71ev2a_c1_scaffolds.sdf']

>  <fragmenstein_runtime>  (230) 
6.785495

$$$$
C45863-P322
     RDKit          3D

 20 22  0  0  0  0  0  0  0  0999 V2000
   25.0761   20.3131   23.8816 O   0  0  0  0  0  0  0  0  0  0  0  0
   25.1233   21.2608   23.2070 C   0  0  0  0  0  0  0  0  0  0  0  0
   24.2058   22.4950   23.1556 N   0  0  0  0  0  0  0  0  0  0  0  0
   22.9700   22.7831   23.8645 C   0  0  2  0  0  0  0  0  0  0  0  0
   21.7882   22.0481   23.2149 C   0  0  0  0  0  0  0  0  0  0  0  0
   20.9973   22.9328   22.2457 C   0  0  0  0  0  0  0  0  0  0  0  0
   21.8632   24.0199   21.6173 C   0  0  0  0  0  0  0  0  0  0  0  0
   22.4594   24.9170   22.6081 N   0  0  0  0  0  0  0  0  0  0  0  0
   22.7070   24.2976   23.9166 C   0  0  0  0  0  0  0  0  0  0  0  0
   26.2151   21.3614   22.2226 C   0  0  0  0  0  0  0  0  0  0  0  0
   26.5725   20.2807   21.4530 C   0  0  0  0  0  0  0  0  0  0  0  0
   27.5528   20.3261   20.5268 N   0  0  0  0  0  0  0  0  0  0  0  0
   28.2012   21.5000   20.3763 C   0  0  0  0  0  0  0  0  0  0  0  0
   29.2522   21.5827   19.2774 C   0  0  2  0  0  0  0  0  0  0  0  0
   30.4140   20.6341   19.5227 C   0  0  0  0  0  0  0  0  0  0  0  0
   31.4903   21.2043   18.6294 C   0  0  0  0  0  0  0  0  0  0  0  0
   31.3216   22.6947   18.8433 C   0  0  0  0  0  0  0  0  0  0  0  0
   29.8909   22.9185   19.0881 N   0  0  0  0  0  0  0  0  0  0  0  0
   27.9577   22.6014   21.1282 N   0  0  0  0  0  0  0  0  0  0  0  0
   26.9659   22.4992   22.0392 C   0  0  0  0  0  0  0  0  0  0  0  0
  1  2  2  0
  2  3  1  0
  4  3  1  6
  4  5  1  0
  5  6  1  0
  6  7  1  0
  7  8  1  0
  8  9  1  0
  2 10  1  0
 10 11  2  0
 11 12  1  0
 12 13  2  0
 14 13  1  1
 14 15  1  0
 15 16  1  0
 16 17  1  0
 17 18  1  0
 13 19  1  0
 19 20  2  0
  9  4  1  0
 20 10  1  0
 18 14  1  0
M  END
>  <ref_pdb>  (231) 
A4351a

>  <subsites>  (231) 
1 - Active Site,5 - A3181/A/202/1

>  <HIPPO Compound ID>  (231) 
55754

>  <energy_score>  (231) 
-5.987918

>  <fragmenstein_mode>  (231) 
expansion

>  <scratch_subdir>  (231) 
/opt/xchem-fragalysis-2/maxwin/BulkDock/SCRATCH/512164/C45863-P322

>  <smiles>  (231) 
O=C(N[C@@H]1CCCNC1)c1cnc([C@@H]2CCCN2)nc1

>  <alias>  (231) 
C45863-P322

>  <ref_mols>  (231) 
A4351a,A1146a

>  <inspiration_score>  (231) 
None

>  <tags>  (231) 
BulkDock Fragalysis export,fragmenstein_placed,openbind_a71ev2a_c1_scaffolds,openbind_a71ev2a_c1_knitwork_pure

>  <fragmenstein_outcome>  (231) 
acceptable

>  <fragmenstein_error>  (231) 


>  <distance_score>  (231) 
0.720692

>  <inchikey>  (231) 
GMCQQOLNFQNWLY-UHFFFAOYSA-N

>  <name>  (231) 
C45863-P322

>  <HIPPO Pose ID>  (231) 
203390

>  <Energy>  (231) 
71.679934

>  <exports>  (231) 
['/opt/xchem-fragalysis-2/maxwin/BulkDock/OUTPUTS/openbind_a71ev2a_c1_knitwork_pure_165VWF8.sdf', '/opt/xchem-fragalysis-2/maxwin/BulkDock/OUTPUTS/openbind_a71ev2a_c1_knitwork_pure_1B07PTU.sdf', '/opt/xchem-fragalysis-2/maxwin/BulkDock/OUTPUTS/openbind_a71ev2a_c1_knitwork_pure_1B07UWE.sdf', '/opt/xchem-fragalysis-2/maxwin/openbind-hippo/a71ev2a/openbind_a71ev2a_c1_scaffold_products.sdf', '/opt/xchem-fragalysis-2/maxwin/openbind-hippo/a71ev2a/cycle_01/bulkdock/openbind_a71ev2a_c1_scaffold_products.sdf', '/opt/xchem-fragalysis-2/maxwin/openbind-hippo/a71ev2a/cycle_01/bulkdock/openbind_a71ev2a_c1_scaffolds.sdf']

>  <fragmenstein_runtime>  (231) 
5.443762

$$$$
C47239-P196
     RDKit          3D

 19 21  0  0  0  0  0  0  0  0999 V2000
   -3.9818    4.1119    2.3583 O   0  0  0  0  0  0  0  0  0  0  0  0
   -3.4557    4.5858    3.3486 C   0  0  0  0  0  0  0  0  0  0  0  0
   -2.2518    5.2728    3.3357 N   0  0  0  0  0  0  0  0  0  0  0  0
   -1.7974    5.5354    4.6786 C   0  0  1  0  0  0  0  0  0  0  0  0
   -1.1199    6.8652    4.8665 C   0  0  0  0  0  0  0  0  0  0  0  0
   -1.2305    7.9156    3.9452 C   0  0  0  0  0  0  0  0  0  0  0  0
   -0.5796    9.1298    4.1755 C   0  0  0  0  0  0  0  0  0  0  0  0
    0.1780    9.3160    5.3311 C   0  0  0  0  0  0  0  0  0  0  0  0
    0.2816    8.2900    6.2655 C   0  0  0  0  0  0  0  0  0  0  0  0
   -0.3650    7.0809    6.0251 C   0  0  0  0  0  0  0  0  0  0  0  0
   -0.2250    6.0827    6.9122 F   0  0  0  0  0  0  0  0  0  0  0  0
   -3.0811    5.3850    5.5033 C   0  0  0  0  0  0  0  0  0  0  0  0
   -3.9203    4.5572    4.6608 N   0  0  0  0  0  0  0  0  0  0  0  0
   -5.2700    4.1632    5.0634 C   0  0  1  0  0  0  0  0  0  0  0  0
   -6.3407    5.1419    4.5426 C   0  0  0  0  0  0  0  0  0  0  0  0
   -7.2758    4.4768    3.5378 C   0  0  0  0  0  0  0  0  0  0  0  0
   -7.8961    3.1925    4.0993 C   0  0  0  0  0  0  0  0  0  0  0  0
   -7.0037    2.3908    4.9437 N   0  0  0  0  0  0  0  0  0  0  0  0
   -5.5933    2.6965    4.6897 C   0  0  0  0  0  0  0  0  0  0  0  0
  1  2  2  0
  2  3  1  0
  3  4  1  0
  4  5  1  6
  5  6  2  0
  6  7  1  0
  7  8  2  0
  8  9  1  0
  9 10  2  0
 10 11  1  0
  4 12  1  0
 12 13  1  0
 14 13  1  6
 14 15  1  0
 15 16  1  0
 16 17  1  0
 17 18  1  0
 18 19  1  0
 13  2  1  0
 19 14  1  0
 10  5  1  0
M  END
>  <ref_pdb>  (232) 
A3616a

>  <subsites>  (232) 
1 - Active Site,17 - A1081/A/201/1

>  <HIPPO Compound ID>  (232) 
56319

>  <energy_score>  (232) 
-36.997486

>  <fragmenstein_mode>  (232) 
expansion

>  <scratch_subdir>  (232) 
/opt/xchem-fragalysis-2/maxwin/BulkDock/SCRATCH/512164/C47239-P196

>  <smiles>  (232) 
O=C1N[C@@H](c2ccccc2F)CN1[C@H]1CCCNC1

>  <alias>  (232) 
C47239-P196

>  <ref_mols>  (232) 
A3616a,A1081b

>  <inspiration_score>  (232) 
None

>  <tags>  (232) 
BulkDock Fragalysis export,fragmenstein_placed,openbind_a71ev2a_c1_scaffolds,openbind_a71ev2a_c1_knitwork_pure

>  <fragmenstein_outcome>  (232) 
acceptable

>  <fragmenstein_error>  (232) 


>  <distance_score>  (232) 
0.454619

>  <inchikey>  (232) 
HWMWQVREGFTJLC-UHFFFAOYSA-N

>  <name>  (232) 
C47239-P196

>  <HIPPO Pose ID>  (232) 
204196

>  <Energy>  (232) 
-16.251298

>  <exports>  (232) 
['/opt/xchem-fragalysis-2/maxwin/BulkDock/OUTPUTS/openbind_a71ev2a_c1_knitwork_pure_165VWF8.sdf', '/opt/xchem-fragalysis-2/maxwin/BulkDock/OUTPUTS/openbind_a71ev2a_c1_knitwork_pure_1B07PTU.sdf', '/opt/xchem-fragalysis-2/maxwin/BulkDock/OUTPUTS/openbind_a71ev2a_c1_knitwork_pure_1B07UWE.sdf', '/opt/xchem-fragalysis-2/maxwin/openbind-hippo/a71ev2a/openbind_a71ev2a_c1_scaffold_products.sdf', '/opt/xchem-fragalysis-2/maxwin/openbind-hippo/a71ev2a/cycle_01/bulkdock/openbind_a71ev2a_c1_scaffold_products.sdf', '/opt/xchem-fragalysis-2/maxwin/openbind-hippo/a71ev2a/cycle_01/bulkdock/openbind_a71ev2a_c1_scaffolds.sdf']

>  <fragmenstein_runtime>  (232) 
18.199989

$$$$
C124407-P214
     RDKit          3D

 12 13  0  0  0  0  0  0  0  0999 V2000
    6.8905   13.3970   25.4236 Cl  0  0  0  0  0  0  0  0  0  0  0  0
    7.5772   11.9844   24.8010 C   0  0  0  0  0  0  0  0  0  0  0  0
    7.1430   10.6864   25.1018 C   0  0  0  0  0  0  0  0  0  0  0  0
    7.8843    9.7569   24.5026 N   0  0  0  0  0  0  0  0  0  0  0  0
    8.7726   10.4682   23.7782 N   0  0  0  0  0  0  0  0  0  0  0  0
    8.6393   11.8319   23.9325 C   0  0  0  0  0  0  0  0  0  0  0  0
    9.5406   12.8137   23.2426 C   0  0  2  0  0  0  0  0  0  0  0  0
   10.6555   13.3082   24.1775 C   0  0  0  0  0  0  0  0  0  0  0  0
   11.5288   14.3711   23.5214 C   0  0  0  0  0  0  0  0  0  0  0  0
   10.6632   15.4963   22.9776 C   0  0  0  0  0  0  0  0  0  0  0  0
    9.5656   14.9432   22.0738 C   0  0  0  0  0  0  0  0  0  0  0  0
    8.7472   13.9506   22.7693 N   0  0  0  0  0  0  0  0  0  0  0  0
  1  2  1  0
  2  3  1  0
  3  4  2  0
  4  5  1  0
  5  6  1  0
  7  6  1  1
  7  8  1  0
  8  9  1  0
  9 10  1  0
 10 11  1  0
 11 12  1  0
  6  2  2  0
 12  7  1  0
M  END
>  <ref_pdb>  (233) 
A3550a

>  <subsites>  (233) 
1 - Active Site

>  <HIPPO Compound ID>  (233) 
49767

>  <energy_score>  (233) 
-33.497524

>  <fragmenstein_mode>  (233) 
expansion

>  <scratch_subdir>  (233) 
/opt/xchem-fragalysis-2/maxwin/BulkDock/SCRATCH/512164/C124407-P214

>  <smiles>  (233) 
Clc1cn[nH]c1[C@@H]1CCCCN1

>  <alias>  (233) 
C124407-P214

>  <ref_mols>  (233) 
A0556a,A3550a

>  <inspiration_score>  (233) 
None

>  <tags>  (233) 
BulkDock Fragalysis export,fragmenstein_placed,openbind_a71ev2a_c1_scaffolds,openbind_a71ev2a_c1_knitwork_pure

>  <fragmenstein_outcome>  (233) 
acceptable

>  <fragmenstein_error>  (233) 


>  <distance_score>  (233) 
0.832893

>  <inchikey>  (233) 
MDKJRJCQKQXIAA-UHFFFAOYSA-N

>  <name>  (233) 
C124407-P214

>  <HIPPO Pose ID>  (233) 
204473

>  <Energy>  (233) 
-12.061683

>  <exports>  (233) 
['/opt/xchem-fragalysis-2/maxwin/BulkDock/OUTPUTS/openbind_a71ev2a_c1_knitwork_pure_165VWF8.sdf', '/opt/xchem-fragalysis-2/maxwin/BulkDock/OUTPUTS/openbind_a71ev2a_c1_knitwork_pure_1B07PTU.sdf', '/opt/xchem-fragalysis-2/maxwin/BulkDock/OUTPUTS/openbind_a71ev2a_c1_knitwork_pure_1B07UWE.sdf', '/opt/xchem-fragalysis-2/maxwin/openbind-hippo/a71ev2a/openbind_a71ev2a_c1_scaffold_products.sdf', '/opt/xchem-fragalysis-2/maxwin/openbind-hippo/a71ev2a/cycle_01/bulkdock/openbind_a71ev2a_c1_scaffold_products.sdf', '/opt/xchem-fragalysis-2/maxwin/openbind-hippo/a71ev2a/cycle_01/bulkdock/openbind_a71ev2a_c1_scaffolds.sdf']

>  <fragmenstein_runtime>  (233) 
7.787705

$$$$
C124416-P214
     RDKit          3D

 13 14  0  0  0  0  0  0  0  0999 V2000
    9.5031    9.4446   23.2124 C   0  0  0  0  0  0  0  0  0  0  0  0
    8.5854   10.2851   23.9493 N   0  0  0  0  0  0  0  0  0  0  0  0
    7.6681    9.6700   24.7319 N   0  0  0  0  0  0  0  0  0  0  0  0
    6.9662   10.6704   25.2571 C   0  0  0  0  0  0  0  0  0  0  0  0
    7.4700   11.9185   24.8772 C   0  0  0  0  0  0  0  0  0  0  0  0
    6.8627   13.4058   25.4069 Cl  0  0  0  0  0  0  0  0  0  0  0  0
    8.5227   11.6654   24.0149 C   0  0  0  0  0  0  0  0  0  0  0  0
    9.4208   12.6196   23.2676 C   0  0  2  0  0  0  0  0  0  0  0  0
   10.4792   13.2554   24.1857 C   0  0  0  0  0  0  0  0  0  0  0  0
   11.3013   14.3275   23.4798 C   0  0  0  0  0  0  0  0  0  0  0  0
   10.3825   15.3444   22.8247 C   0  0  0  0  0  0  0  0  0  0  0  0
    9.3745   14.6450   21.9172 C   0  0  0  0  0  0  0  0  0  0  0  0
    8.5765   13.6465   22.6374 N   0  0  0  0  0  0  0  0  0  0  0  0
  1  2  1  0
  2  3  1  0
  3  4  2  0
  4  5  1  0
  5  6  1  0
  5  7  2  0
  8  7  1  1
  8  9  1  0
  9 10  1  0
 10 11  1  0
 11 12  1  0
 12 13  1  0
  7  2  1  0
 13  8  1  0
M  END
>  <ref_pdb>  (234) 
A3550a

>  <subsites>  (234) 
1 - Active Site

>  <HIPPO Compound ID>  (234) 
54984

>  <energy_score>  (234) 
-27.295156

>  <fragmenstein_mode>  (234) 
expansion

>  <scratch_subdir>  (234) 
/opt/xchem-fragalysis-2/maxwin/BulkDock/SCRATCH/512164/C124416-P214

>  <smiles>  (234) 
Cn1ncc(Cl)c1[C@@H]1CCCCN1

>  <alias>  (234) 
C124416-P214

>  <ref_mols>  (234) 
A0556a,A3550a

>  <inspiration_score>  (234) 
None

>  <tags>  (234) 
BulkDock Fragalysis export,fragmenstein_placed,openbind_a71ev2a_c1_scaffolds,openbind_a71ev2a_c1_knitwork_pure

>  <fragmenstein_outcome>  (234) 
acceptable

>  <fragmenstein_error>  (234) 


>  <distance_score>  (234) 
0.886264

>  <inchikey>  (234) 
IYBHUXYKLJVDAB-UHFFFAOYSA-N

>  <name>  (234) 
C124416-P214

>  <HIPPO Pose ID>  (234) 
204475

>  <Energy>  (234) 
-9.521844

>  <exports>  (234) 
['/opt/xchem-fragalysis-2/maxwin/BulkDock/OUTPUTS/openbind_a71ev2a_c1_knitwork_pure_165VWF8.sdf', '/opt/xchem-fragalysis-2/maxwin/BulkDock/OUTPUTS/openbind_a71ev2a_c1_knitwork_pure_1B07PTU.sdf', '/opt/xchem-fragalysis-2/maxwin/BulkDock/OUTPUTS/openbind_a71ev2a_c1_knitwork_pure_1B07UWE.sdf', '/opt/xchem-fragalysis-2/maxwin/openbind-hippo/a71ev2a/openbind_a71ev2a_c1_scaffold_products.sdf', '/opt/xchem-fragalysis-2/maxwin/openbind-hippo/a71ev2a/cycle_01/bulkdock/openbind_a71ev2a_c1_scaffold_products.sdf', '/opt/xchem-fragalysis-2/maxwin/openbind-hippo/a71ev2a/cycle_01/bulkdock/openbind_a71ev2a_c1_scaffolds.sdf']

>  <fragmenstein_runtime>  (234) 
8.226842

$$$$
C47045-P198
     RDKit          3D

 22 24  0  0  0  0  0  0  0  0999 V2000
    3.4521   10.5682   27.8586 C   0  0  0  0  0  0  0  0  0  0  0  0
    4.2131   11.8776   27.6838 C   0  0  2  0  0  0  0  0  0  0  0  0
    3.2905   13.0025   27.6848 N   0  0  0  0  0  0  0  0  0  0  0  0
    1.9352   13.1912   26.9524 C   0  0  0  0  0  0  0  0  0  0  0  0
    1.3346   12.4618   26.3169 O   0  0  0  0  0  0  0  0  0  0  0  0
    1.6133   14.6457   27.3814 N   0  0  0  0  0  0  0  0  0  0  0  0
    0.4283   15.4386   27.1748 C   0  0  0  0  0  0  0  0  0  0  0  0
   -0.5782   15.3038   28.3251 C   0  0  2  0  0  0  0  0  0  0  0  0
   -1.1574   13.8829   28.4260 C   0  0  0  0  0  0  0  0  0  0  0  0
   -2.2577   13.8182   29.4822 C   0  0  0  0  0  0  0  0  0  0  0  0
   -3.3131   14.8964   29.2553 C   0  0  0  0  0  0  0  0  0  0  0  0
   -2.7097   16.2272   29.2070 N   0  0  0  0  0  0  0  0  0  0  0  0
   -1.7131   16.3244   28.1395 C   0  0  0  0  0  0  0  0  0  0  0  0
    5.2274   11.9251   26.5387 C   0  0  0  0  0  0  0  0  0  0  0  0
    5.6489   13.1613   26.0230 C   0  0  0  0  0  0  0  0  0  0  0  0
    6.6796   13.2624   25.0797 C   0  0  0  0  0  0  0  0  0  0  0  0
    7.3444   12.1073   24.6449 C   0  0  0  0  0  0  0  0  0  0  0  0
    8.4159   12.0794   23.7656 N   0  0  0  0  0  0  0  0  0  0  0  0
    8.8085   10.8370   23.6041 C   0  0  0  0  0  0  0  0  0  0  0  0
    7.9093    9.6553   24.4395 S   0  0  0  0  0  0  0  0  0  0  0  0
    6.9223   10.8743   25.1394 C   0  0  0  0  0  0  0  0  0  0  0  0
    5.8626   10.7575   26.0647 C   0  0  0  0  0  0  0  0  0  0  0  0
  2  1  1  6
  2  3  1  0
  3  4  1  0
  4  5  2  0
  4  6  1  0
  6  7  1  0
  8  7  1  6
  8  9  1  0
  9 10  1  0
 10 11  1  0
 11 12  1  0
 12 13  1  0
  2 14  1  0
 14 15  2  0
 15 16  1  0
 16 17  2  0
 17 18  1  0
 18 19  2  0
 19 20  1  0
 20 21  1  0
 21 22  2  0
 13  8  1  0
 22 14  1  0
 21 17  1  0
M  END
>  <ref_pdb>  (235) 
A3618a

>  <subsites>  (235) 
1 - Active Site,5 - A3181/A/202/1

>  <HIPPO Compound ID>  (235) 
47045

>  <energy_score>  (235) 
-32.387221

>  <fragmenstein_mode>  (235) 
expansion

>  <scratch_subdir>  (235) 
/opt/xchem-fragalysis-2/maxwin/BulkDock/SCRATCH/511227/C47045-P198

>  <smiles>  (235) 
C[C@H](NC(=O)NC[C@@H]1CCCNC1)c1ccc2ncsc2c1

>  <alias>  (235) 
C47045-P198

>  <ref_mols>  (235) 
A0514b,A3618a

>  <inspiration_score>  (235) 
None

>  <tags>  (235) 
BulkDock Fragalysis export,fragmenstein_placed,openbind_a71ev2a_c1_scaffolds,openbind_a71ev2a_c1_knitwork_pure

>  <fragmenstein_outcome>  (235) 
acceptable

>  <fragmenstein_error>  (235) 


>  <distance_score>  (235) 
0.885342

>  <inchikey>  (235) 
YCRGSBIGVVKPPN-UHFFFAOYSA-N

>  <name>  (235) 
C47045-P198

>  <HIPPO Pose ID>  (235) 
204972

>  <Energy>  (235) 
-36.325017

>  <exports>  (235) 
['/opt/xchem-fragalysis-2/maxwin/BulkDock/OUTPUTS/openbind_a71ev2a_c1_knitwork_pure_165VWF8.sdf', '/opt/xchem-fragalysis-2/maxwin/BulkDock/OUTPUTS/openbind_a71ev2a_c1_knitwork_pure_1B07PTU.sdf', '/opt/xchem-fragalysis-2/maxwin/BulkDock/OUTPUTS/openbind_a71ev2a_c1_knitwork_pure_1B07UWE.sdf', '/opt/xchem-fragalysis-2/maxwin/openbind-hippo/a71ev2a/openbind_a71ev2a_c1_scaffold_products.sdf', '/opt/xchem-fragalysis-2/maxwin/openbind-hippo/a71ev2a/cycle_01/bulkdock/openbind_a71ev2a_c1_scaffold_products.sdf', '/opt/xchem-fragalysis-2/maxwin/openbind-hippo/a71ev2a/cycle_01/bulkdock/openbind_a71ev2a_c1_scaffolds.sdf']

>  <fragmenstein_runtime>  (235) 
3.62778

$$$$
C12359-P152
     RDKit          3D

 13 13  0  0  0  0  0  0  0  0999 V2000
    6.8882   15.1644   26.6768 C   0  0  0  0  0  0  0  0  0  0  0  0
    7.6963   15.0540   25.3980 C   0  0  0  0  0  0  0  0  0  0  0  0
    6.8264   14.6060   24.2291 C   0  0  0  0  0  0  0  0  0  0  0  0
    7.7898   14.1032   22.8069 S   0  0  0  0  0  0  0  0  0  0  0  0
    8.4374   15.2764   22.2622 O   0  0  0  0  0  0  0  0  0  0  0  0
    7.0197   13.2279   21.9496 O   0  0  0  0  0  0  0  0  0  0  0  0
    9.0448   13.2171   23.5031 N   0  0  0  0  0  0  0  0  0  0  0  0
    8.8784   11.8367   23.8318 C   0  0  0  0  0  0  0  0  0  0  0  0
    9.6724   10.9148   23.1707 C   0  0  0  0  0  0  0  0  0  0  0  0
    9.6111    9.5672   23.4975 C   0  0  0  0  0  0  0  0  0  0  0  0
    8.7472    9.1926   24.5025 C   0  0  0  0  0  0  0  0  0  0  0  0
    7.9466   10.0460   25.1766 N   0  0  0  0  0  0  0  0  0  0  0  0
    8.0219   11.3505   24.8116 C   0  0  0  0  0  0  0  0  0  0  0  0
  1  2  1  0
  2  3  1  0
  3  4  1  0
  4  5  2  0
  4  6  2  0
  4  7  1  0
  7  8  1  0
  8  9  2  0
  9 10  1  0
 10 11  2  0
 11 12  1  0
 12 13  2  0
 13  8  1  0
M  END
>  <ref_pdb>  (236) 
A3201a

>  <subsites>  (236) 
1 - Active Site

>  <HIPPO Compound ID>  (236) 
50555

>  <energy_score>  (236) 
-27.483654

>  <fragmenstein_mode>  (236) 
expansion

>  <scratch_subdir>  (236) 
/opt/xchem-fragalysis-2/maxwin/BulkDock/SCRATCH/511227/C12359-P152

>  <smiles>  (236) 
CCCS(=O)(=O)Nc1cccnc1

>  <alias>  (236) 
C12359-P152

>  <ref_mols>  (236) 
A3201a,A0719a

>  <inspiration_score>  (236) 
None

>  <tags>  (236) 
BulkDock Fragalysis export,fragmenstein_placed,openbind_a71ev2a_c1_scaffolds,openbind_a71ev2a_c1_knitwork_pure

>  <fragmenstein_outcome>  (236) 
acceptable

>  <fragmenstein_error>  (236) 


>  <distance_score>  (236) 
0.932163

>  <inchikey>  (236) 
GTAWTVGQTNAEFZ-UHFFFAOYSA-N

>  <name>  (236) 
C12359-P152

>  <HIPPO Pose ID>  (236) 
207503

>  <Energy>  (236) 
-20.821217

>  <exports>  (236) 
['/opt/xchem-fragalysis-2/maxwin/BulkDock/OUTPUTS/openbind_a71ev2a_c1_knitwork_pure_165VWF8.sdf', '/opt/xchem-fragalysis-2/maxwin/BulkDock/OUTPUTS/openbind_a71ev2a_c1_knitwork_pure_1B07PTU.sdf', '/opt/xchem-fragalysis-2/maxwin/BulkDock/OUTPUTS/openbind_a71ev2a_c1_knitwork_pure_1B07UWE.sdf', '/opt/xchem-fragalysis-2/maxwin/openbind-hippo/a71ev2a/openbind_a71ev2a_c1_scaffold_products.sdf', '/opt/xchem-fragalysis-2/maxwin/openbind-hippo/a71ev2a/cycle_01/bulkdock/openbind_a71ev2a_c1_scaffold_products.sdf', '/opt/xchem-fragalysis-2/maxwin/openbind-hippo/a71ev2a/cycle_01/bulkdock/openbind_a71ev2a_c1_scaffolds.sdf']

>  <fragmenstein_runtime>  (236) 
2.260886

$$$$
C39959-P100
     RDKit          3D

 23 24  0  0  0  0  0  0  0  0999 V2000
   -0.0869   12.1260    1.5759 C   0  0  0  0  0  0  0  0  0  0  0  0
    0.4169   10.6909    1.6699 C   0  0  1  0  0  0  0  0  0  0  0  0
    1.9247   10.5602    1.4115 C   0  0  0  0  0  0  0  0  0  0  0  0
    2.7890   11.3136    2.4166 C   0  0  0  0  0  0  0  0  0  0  0  0
    4.1906   11.0605    2.2207 N   0  0  0  0  0  0  0  0  0  0  0  0
    5.4322   11.6503    2.9440 C   0  0  0  0  0  0  0  0  0  0  0  0
    5.5084   12.4865    3.7541 O   0  0  0  0  0  0  0  0  0  0  0  0
    6.6302   10.9175    2.3273 C   0  0  0  0  0  0  0  0  0  0  0  0
    7.9833   11.3279    2.9019 C   0  0  0  0  0  0  0  0  0  0  0  0
    8.4050   12.6937    2.4734 C   0  0  0  0  0  0  0  0  0  0  0  0
    8.1455   13.9312    3.0222 C   0  0  0  0  0  0  0  0  0  0  0  0
    8.8546   14.8384    2.2222 C   0  0  0  0  0  0  0  0  0  0  0  0
    9.5440   14.2289    1.2547 N   0  0  0  0  0  0  0  0  0  0  0  0
    9.2155   12.9319    1.3980 N   0  0  0  0  0  0  0  0  0  0  0  0
    0.0709   10.1055    2.9464 N   0  0  0  0  0  0  0  0  0  0  0  0
   -0.1042    8.6147    3.3602 C   0  0  0  0  0  0  0  0  0  0  0  0
    0.0798    7.6337    2.7520 O   0  0  0  0  0  0  0  0  0  0  0  0
   -0.5380    8.6168    4.8406 C   0  0  2  0  0  0  0  0  0  0  0  0
    0.5999    9.0826    5.7448 C   0  0  0  0  0  0  0  0  0  0  0  0
    0.6681    8.0861    6.7805 N   0  0  0  0  0  0  0  0  0  0  0  0
   -0.0585    6.9704    6.4170 C   0  0  0  0  0  0  0  0  0  0  0  0
    0.0296    5.8690    6.9343 O   0  0  0  0  0  0  0  0  0  0  0  0
   -0.8526    7.2944    5.3397 N   0  0  0  0  0  0  0  0  0  0  0  0
  2  1  1  1
  2  3  1  0
  3  4  1  0
  4  5  1  0
  5  6  1  0
  6  7  2  0
  6  8  1  0
  8  9  1  0
  9 10  1  0
 10 11  2  0
 11 12  1  0
 12 13  2  0
 13 14  1  0
  2 15  1  0
 15 16  1  0
 16 17  2  0
 18 16  1  6
 18 19  1  0
 19 20  1  0
 20 21  1  0
 21 22  2  0
 21 23  1  0
 14 10  1  0
 23 18  1  0
M  END
>  <ref_pdb>  (237) 
A1081b

>  <subsites>  (237) 
3 - A0541/A/147/1,17 - A1081/A/201/1

>  <HIPPO Compound ID>  (237) 
57585

>  <energy_score>  (237) 
-5.698781

>  <fragmenstein_mode>  (237) 
expansion

>  <scratch_subdir>  (237) 
/opt/xchem-fragalysis-2/maxwin/BulkDock/SCRATCH/511227/C39959-P100

>  <smiles>  (237) 
C[C@@H](CCNC(=O)CCc1ccn[nH]1)NC(=O)[C@@H]1CNC(=O)N1

>  <alias>  (237) 
C39959-P100

>  <ref_mols>  (237) 
A1081b,A0717a

>  <inspiration_score>  (237) 
None

>  <tags>  (237) 
BulkDock Fragalysis export,fragmenstein_placed,openbind_a71ev2a_c1_scaffolds,openbind_a71ev2a_c1_knitwork_pure

>  <fragmenstein_outcome>  (237) 
acceptable

>  <fragmenstein_error>  (237) 


>  <distance_score>  (237) 
0.696167

>  <inchikey>  (237) 
LHYZZOLVXFMPSN-UHFFFAOYSA-N

>  <name>  (237) 
C39959-P100

>  <HIPPO Pose ID>  (237) 
207613

>  <Energy>  (237) 
-28.149752

>  <exports>  (237) 
['/opt/xchem-fragalysis-2/maxwin/BulkDock/OUTPUTS/openbind_a71ev2a_c1_knitwork_pure_165VWF8.sdf', '/opt/xchem-fragalysis-2/maxwin/BulkDock/OUTPUTS/openbind_a71ev2a_c1_knitwork_pure_1B07PTU.sdf', '/opt/xchem-fragalysis-2/maxwin/BulkDock/OUTPUTS/openbind_a71ev2a_c1_knitwork_pure_1B07UWE.sdf', '/opt/xchem-fragalysis-2/maxwin/openbind-hippo/a71ev2a/openbind_a71ev2a_c1_scaffold_products.sdf', '/opt/xchem-fragalysis-2/maxwin/openbind-hippo/a71ev2a/cycle_01/bulkdock/openbind_a71ev2a_c1_scaffold_products.sdf', '/opt/xchem-fragalysis-2/maxwin/openbind-hippo/a71ev2a/cycle_01/bulkdock/openbind_a71ev2a_c1_scaffolds.sdf']

>  <fragmenstein_runtime>  (237) 
2.128783

$$$$
C124666-P76
     RDKit          3D

 22 23  0  0  0  0  0  0  0  0999 V2000
    2.7051   11.7097    1.2629 C   0  0  0  0  0  0  0  0  0  0  0  0
    3.6819   10.5415    1.1878 C   0  0  2  0  0  0  0  0  0  0  0  0
    3.0320    9.1669    1.4243 C   0  0  0  0  0  0  0  0  0  0  0  0
    2.0244    9.0933    2.4609 N   0  0  0  0  0  0  0  0  0  0  0  0
    1.0458    7.9411    2.8402 C   0  0  0  0  0  0  0  0  0  0  0  0
    0.8544    6.9099    2.3238 O   0  0  0  0  0  0  0  0  0  0  0  0
    0.1776    8.4099    4.0629 C   0  0  2  0  0  0  0  0  0  0  0  0
    1.0318    8.9606    5.2023 C   0  0  0  0  0  0  0  0  0  0  0  0
    0.8084    8.0729    6.3095 N   0  0  0  0  0  0  0  0  0  0  0  0
   -0.0706    7.0668    5.9834 C   0  0  0  0  0  0  0  0  0  0  0  0
   -0.2575    6.0892    6.6896 O   0  0  0  0  0  0  0  0  0  0  0  0
   -0.6104    7.3658    4.7398 N   0  0  0  0  0  0  0  0  0  0  0  0
   -1.4821    6.4544    4.0364 C   0  0  0  0  0  0  0  0  0  0  0  0
    4.8417   10.7933    2.0248 N   0  0  0  0  0  0  0  0  0  0  0  0
    6.3540   10.8573    1.6628 C   0  0  0  0  0  0  0  0  0  0  0  0
    6.8881   10.7934    0.6231 O   0  0  0  0  0  0  0  0  0  0  0  0
    7.1556   11.1471    2.9448 C   0  0  0  0  0  0  0  0  0  0  0  0
    7.8472   12.4703    2.8177 C   0  0  0  0  0  0  0  0  0  0  0  0
    7.8585   13.5786    3.6357 C   0  0  0  0  0  0  0  0  0  0  0  0
    8.6584   14.5178    2.9621 C   0  0  0  0  0  0  0  0  0  0  0  0
    9.1599   14.0388    1.8222 N   0  0  0  0  0  0  0  0  0  0  0  0
    8.6476   12.7937    1.7486 N   0  0  0  0  0  0  0  0  0  0  0  0
  2  1  1  1
  2  3  1  0
  3  4  1  0
  4  5  1  0
  5  6  2  0
  7  5  1  6
  7  8  1  0
  8  9  1  0
  9 10  1  0
 10 11  2  0
 10 12  1  0
 12 13  1  0
  2 14  1  0
 14 15  1  0
 15 16  2  0
 15 17  1  0
 17 18  1  0
 18 19  2  0
 19 20  1  0
 20 21  2  0
 21 22  1  0
 12  7  1  0
 22 18  1  0
M  END
>  <ref_pdb>  (238) 
A0717a

>  <subsites>  (238) 
3 - A0541/A/147/1,17 - A1081/A/201/1

>  <HIPPO Compound ID>  (238) 
124666

>  <energy_score>  (238) 
-4.034276

>  <fragmenstein_mode>  (238) 
expansion

>  <scratch_subdir>  (238) 
/opt/xchem-fragalysis-2/maxwin/BulkDock/SCRATCH/511227/C124666-P76

>  <smiles>  (238) 
C[C@H](CNC(=O)[C@@H]1CNC(=O)N1C)NC(=O)Cc1ccn[nH]1

>  <alias>  (238) 
C124666-P76

>  <ref_mols>  (238) 
A1081b,A0717a

>  <inspiration_score>  (238) 
None

>  <tags>  (238) 
BulkDock Fragalysis export,fragmenstein_placed,openbind_a71ev2a_c1_scaffolds,openbind_a71ev2a_c1_knitwork_pure

>  <fragmenstein_outcome>  (238) 
acceptable

>  <fragmenstein_error>  (238) 


>  <distance_score>  (238) 
0.683962

>  <inchikey>  (238) 
YPQHHFKDRTWIRH-UHFFFAOYSA-N

>  <name>  (238) 
C124666-P76

>  <HIPPO Pose ID>  (238) 
207620

>  <Energy>  (238) 
22.122836

>  <exports>  (238) 
['/opt/xchem-fragalysis-2/maxwin/BulkDock/OUTPUTS/openbind_a71ev2a_c1_knitwork_pure_165VWF8.sdf', '/opt/xchem-fragalysis-2/maxwin/BulkDock/OUTPUTS/openbind_a71ev2a_c1_knitwork_pure_1B07PTU.sdf', '/opt/xchem-fragalysis-2/maxwin/BulkDock/OUTPUTS/openbind_a71ev2a_c1_knitwork_pure_1B07UWE.sdf', '/opt/xchem-fragalysis-2/maxwin/openbind-hippo/a71ev2a/openbind_a71ev2a_c1_scaffold_products.sdf', '/opt/xchem-fragalysis-2/maxwin/openbind-hippo/a71ev2a/cycle_01/bulkdock/openbind_a71ev2a_c1_scaffold_products.sdf', '/opt/xchem-fragalysis-2/maxwin/openbind-hippo/a71ev2a/cycle_01/bulkdock/openbind_a71ev2a_c1_scaffolds.sdf']

>  <fragmenstein_runtime>  (238) 
1.613191

$$$$
C124672-P100
     RDKit          3D

 22 24  0  0  0  0  0  0  0  0999 V2000
    2.9149   10.9592    1.6716 C   0  0  0  0  0  0  0  0  0  0  0  0
    3.7095   10.3115    2.8110 C   0  0  1  0  0  0  0  0  0  0  0  0
    3.3387    8.8331    3.0166 C   0  0  0  0  0  0  0  0  0  0  0  0
    2.0669    8.6922    3.7122 N   0  0  0  0  0  0  0  0  0  0  0  0
    0.6111    8.7626    3.1760 C   0  0  0  0  0  0  0  0  0  0  0  0
    0.2087    9.0206    2.1092 O   0  0  0  0  0  0  0  0  0  0  0  0
   -0.3741    8.5112    4.3487 C   0  0  2  0  0  0  0  0  0  0  0  0
   -0.0556    9.3317    5.5998 C   0  0  0  0  0  0  0  0  0  0  0  0
    0.3700    8.3363    6.5569 N   0  0  0  0  0  0  0  0  0  0  0  0
    0.0376    7.0645    6.1406 C   0  0  0  0  0  0  0  0  0  0  0  0
    0.1218    6.0437    6.8012 O   0  0  0  0  0  0  0  0  0  0  0  0
   -0.3727    7.1466    4.8301 N   0  0  0  0  0  0  0  0  0  0  0  0
    5.1344   10.5347    2.5975 N   0  0  0  0  0  0  0  0  0  0  0  0
    5.8416   11.6147    3.0472 C   0  0  0  0  0  0  0  0  0  0  0  0
    6.9865   11.5962    2.2922 C   0  0  0  0  0  0  0  0  0  0  0  0
    8.0093   12.7395    2.2424 C   0  0  0  0  0  0  0  0  0  0  0  0
    7.9799   13.9253    2.9367 C   0  0  0  0  0  0  0  0  0  0  0  0
    9.0453   14.6694    2.4030 C   0  0  0  0  0  0  0  0  0  0  0  0
    9.7505   13.9819    1.5000 N   0  0  0  0  0  0  0  0  0  0  0  0
    9.0930   12.8018    1.4192 N   0  0  0  0  0  0  0  0  0  0  0  0
    6.9955   10.4833    1.5000 N   0  0  0  0  0  0  0  0  0  0  0  0
    5.8441    9.8388    1.6858 N   0  0  0  0  0  0  0  0  0  0  0  0
  2  1  1  6
  2  3  1  0
  3  4  1  0
  4  5  1  0
  5  6  2  0
  7  5  1  6
  7  8  1  0
  8  9  1  0
  9 10  1  0
 10 11  2  0
 10 12  1  0
  2 13  1  0
 13 14  1  0
 14 15  2  0
 15 16  1  0
 16 17  2  0
 17 18  1  0
 18 19  2  0
 19 20  1  0
 15 21  1  0
 21 22  2  0
 12  7  1  0
 22 13  1  0
 20 16  1  0
M  END
>  <ref_pdb>  (239) 
A1081b

>  <subsites>  (239) 
3 - A0541/A/147/1,17 - A1081/A/201/1

>  <HIPPO Compound ID>  (239) 
45922

>  <energy_score>  (239) 
-24.302095

>  <fragmenstein_mode>  (239) 
expansion

>  <scratch_subdir>  (239) 
/opt/xchem-fragalysis-2/maxwin/BulkDock/SCRATCH/511227/C124672-P100

>  <smiles>  (239) 
C[C@@H](CNC(=O)[C@@H]1CNC(=O)N1)n1cc(-c2ccn[nH]2)nn1

>  <alias>  (239) 
C124672-P100

>  <ref_mols>  (239) 
A1081b,A0717a

>  <inspiration_score>  (239) 
None

>  <tags>  (239) 
BulkDock Fragalysis export,fragmenstein_placed,openbind_a71ev2a_c1_scaffolds,openbind_a71ev2a_c1_knitwork_pure

>  <fragmenstein_outcome>  (239) 
acceptable

>  <fragmenstein_error>  (239) 


>  <distance_score>  (239) 
0.803698

>  <inchikey>  (239) 
SPNZKICKJJLOLD-UHFFFAOYSA-N

>  <name>  (239) 
C124672-P100

>  <HIPPO Pose ID>  (239) 
207629

>  <Energy>  (239) 
-24.567358

>  <exports>  (239) 
['/opt/xchem-fragalysis-2/maxwin/BulkDock/OUTPUTS/openbind_a71ev2a_c1_knitwork_pure_165VWF8.sdf', '/opt/xchem-fragalysis-2/maxwin/BulkDock/OUTPUTS/openbind_a71ev2a_c1_knitwork_pure_1B07PTU.sdf', '/opt/xchem-fragalysis-2/maxwin/BulkDock/OUTPUTS/openbind_a71ev2a_c1_knitwork_pure_1B07UWE.sdf', '/opt/xchem-fragalysis-2/maxwin/openbind-hippo/a71ev2a/openbind_a71ev2a_c1_scaffold_products.sdf', '/opt/xchem-fragalysis-2/maxwin/openbind-hippo/a71ev2a/cycle_01/bulkdock/openbind_a71ev2a_c1_scaffold_products.sdf', '/opt/xchem-fragalysis-2/maxwin/openbind-hippo/a71ev2a/cycle_01/bulkdock/openbind_a71ev2a_c1_scaffolds.sdf']

>  <fragmenstein_runtime>  (239) 
2.136407

$$$$
C124674-P100
     RDKit          3D

 24 26  0  0  0  0  0  0  0  0999 V2000
    2.3432    6.4631    0.5435 O   0  0  0  0  0  0  0  0  0  0  0  0
    2.3771    7.0410    1.5235 C   0  0  0  0  0  0  0  0  0  0  0  0
    1.2259    7.4924    2.4609 N   0  0  0  0  0  0  0  0  0  0  0  0
   -0.1980    7.2213    2.3976 C   0  0  0  0  0  0  0  0  0  0  0  0
   -0.8267    6.8048    3.7380 C   0  0  0  0  0  0  0  0  0  0  0  0
   -0.4169    7.6540    4.8420 N   0  0  0  0  0  0  0  0  0  0  0  0
   -0.5620    9.0919    4.8338 C   0  0  0  0  0  0  0  0  0  0  0  0
    0.3877    9.4961    5.9438 C   0  0  0  0  0  0  0  0  0  0  0  0
    0.4077    8.3441    6.8087 N   0  0  0  0  0  0  0  0  0  0  0  0
    0.0206    7.2162    6.0907 C   0  0  0  0  0  0  0  0  0  0  0  0
    0.1223    6.0713    6.5009 O   0  0  0  0  0  0  0  0  0  0  0  0
    3.5857    7.6412    2.2927 N   0  0  0  0  0  0  0  0  0  0  0  0
    4.9997    7.5493    2.0270 C   0  0  0  0  0  0  0  0  0  0  0  0
    5.7440    8.8556    2.1446 C   0  0  0  0  0  0  0  0  0  0  0  0
    7.0419    8.8841    2.6844 C   0  0  0  0  0  0  0  0  0  0  0  0
    7.7779   10.0766    2.7450 C   0  0  0  0  0  0  0  0  0  0  0  0
    7.2300   11.2629    2.2560 C   0  0  0  0  0  0  0  0  0  0  0  0
    7.9601   12.5194    2.3114 C   0  0  0  0  0  0  0  0  0  0  0  0
    7.7020   13.6844    3.0032 C   0  0  0  0  0  0  0  0  0  0  0  0
    8.6950   14.5873    2.5880 C   0  0  0  0  0  0  0  0  0  0  0  0
    9.5507   14.0414    1.7199 N   0  0  0  0  0  0  0  0  0  0  0  0
    9.0654   12.7922    1.5486 N   0  0  0  0  0  0  0  0  0  0  0  0
    5.9388   11.2402    1.7119 C   0  0  0  0  0  0  0  0  0  0  0  0
    5.2080   10.0487    1.6461 C   0  0  0  0  0  0  0  0  0  0  0  0
  1  2  2  0
  2  3  1  0
  3  4  1  0
  4  5  1  0
  5  6  1  0
  6  7  1  0
  7  8  1  0
  8  9  1  0
  9 10  1  0
 10 11  2  0
  2 12  1  0
 12 13  1  0
 13 14  1  0
 14 15  2  0
 15 16  1  0
 16 17  2  0
 17 18  1  0
 18 19  2  0
 19 20  1  0
 20 21  2  0
 21 22  1  0
 17 23  1  0
 23 24  2  0
 10  6  1  0
 24 14  1  0
 22 18  1  0
M  END
>  <ref_pdb>  (240) 
A1081b

>  <subsites>  (240) 
3 - A0541/A/147/1,17 - A1081/A/201/1

>  <HIPPO Compound ID>  (240) 
124674

>  <energy_score>  (240) 
-0.279743

>  <fragmenstein_mode>  (240) 
expansion

>  <scratch_subdir>  (240) 
/opt/xchem-fragalysis-2/maxwin/BulkDock/SCRATCH/511227/C124674-P100

>  <smiles>  (240) 
O=C(NCCN1CCNC1=O)NCc1ccc(-c2ccn[nH]2)cc1

>  <alias>  (240) 
C124674-P100

>  <ref_mols>  (240) 
A1081b,A0717a

>  <inspiration_score>  (240) 
None

>  <tags>  (240) 
BulkDock Fragalysis export,fragmenstein_placed,openbind_a71ev2a_c1_scaffolds,openbind_a71ev2a_c1_knitwork_pure

>  <fragmenstein_outcome>  (240) 
acceptable

>  <fragmenstein_error>  (240) 


>  <distance_score>  (240) 
0.727947

>  <inchikey>  (240) 
ARLQJSHPRHVDLE-UHFFFAOYSA-N

>  <name>  (240) 
C124674-P100

>  <HIPPO Pose ID>  (240) 
207633

>  <Energy>  (240) 
-78.385599

>  <exports>  (240) 
['/opt/xchem-fragalysis-2/maxwin/BulkDock/OUTPUTS/openbind_a71ev2a_c1_knitwork_pure_165VWF8.sdf', '/opt/xchem-fragalysis-2/maxwin/BulkDock/OUTPUTS/openbind_a71ev2a_c1_knitwork_pure_1B07PTU.sdf', '/opt/xchem-fragalysis-2/maxwin/BulkDock/OUTPUTS/openbind_a71ev2a_c1_knitwork_pure_1B07UWE.sdf', '/opt/xchem-fragalysis-2/maxwin/openbind-hippo/a71ev2a/openbind_a71ev2a_c1_scaffold_products.sdf', '/opt/xchem-fragalysis-2/maxwin/openbind-hippo/a71ev2a/cycle_01/bulkdock/openbind_a71ev2a_c1_scaffold_products.sdf', '/opt/xchem-fragalysis-2/maxwin/openbind-hippo/a71ev2a/cycle_01/bulkdock/openbind_a71ev2a_c1_scaffolds.sdf']

>  <fragmenstein_runtime>  (240) 
2.778955

$$$$
C124675-P76
     RDKit          3D

 21 23  0  0  0  0  0  0  0  0999 V2000
    0.0739    6.5530    6.4691 O   0  0  0  0  0  0  0  0  0  0  0  0
    0.1514    7.4713    5.6688 C   0  0  0  0  0  0  0  0  0  0  0  0
    0.3120    8.8080    5.9711 N   0  0  0  0  0  0  0  0  0  0  0  0
    0.6081    9.5833    4.7874 C   0  0  0  0  0  0  0  0  0  0  0  0
    0.2735    8.6402    3.6400 C   0  0  1  0  0  0  0  0  0  0  0  0
    1.2740    8.7078    2.4517 C   0  0  0  0  0  0  0  0  0  0  0  0
    0.8987    9.0265    1.3909 O   0  0  0  0  0  0  0  0  0  0  0  0
    2.6937    8.3089    2.9386 N   0  0  0  0  0  0  0  0  0  0  0  0
    3.9228    8.1286    2.2000 C   0  0  0  0  0  0  0  0  0  0  0  0
    4.9108    9.2677    2.2940 C   0  0  0  0  0  0  0  0  0  0  0  0
    4.5059   10.6028    2.2058 C   0  0  0  0  0  0  0  0  0  0  0  0
    5.4487   11.6400    2.2485 C   0  0  0  0  0  0  0  0  0  0  0  0
    6.8244   11.3773    2.3555 C   0  0  0  0  0  0  0  0  0  0  0  0
    7.7647   12.4960    2.3901 C   0  0  0  0  0  0  0  0  0  0  0  0
    7.7062   13.6977    3.0699 C   0  0  0  0  0  0  0  0  0  0  0  0
    8.8083   14.4397    2.6171 C   0  0  0  0  0  0  0  0  0  0  0  0
    9.5463   13.7653    1.7337 N   0  0  0  0  0  0  0  0  0  0  0  0
    8.9033   12.5820    1.6277 N   0  0  0  0  0  0  0  0  0  0  0  0
    7.2366   10.0455    2.4210 C   0  0  0  0  0  0  0  0  0  0  0  0
    6.2904    9.0050    2.3884 C   0  0  0  0  0  0  0  0  0  0  0  0
    0.1632    7.3496    4.2931 N   0  0  0  0  0  0  0  0  0  0  0  0
  1  2  2  0
  2  3  1  0
  3  4  1  0
  4  5  1  0
  5  6  1  6
  6  7  2  0
  6  8  1  0
  8  9  1  0
  9 10  1  0
 10 11  2  0
 11 12  1  0
 12 13  2  0
 13 14  1  0
 14 15  2  0
 15 16  1  0
 16 17  2  0
 17 18  1  0
 13 19  1  0
 19 20  2  0
  5 21  1  0
 21  2  1  0
 20 10  1  0
 18 14  1  0
M  END
>  <ref_pdb>  (241) 
A0717a

>  <subsites>  (241) 
3 - A0541/A/147/1,17 - A1081/A/201/1

>  <HIPPO Compound ID>  (241) 
124752

>  <energy_score>  (241) 
-13.124392

>  <fragmenstein_mode>  (241) 
expansion

>  <scratch_subdir>  (241) 
/opt/xchem-fragalysis-2/maxwin/BulkDock/SCRATCH/511227/C124675-P76

>  <smiles>  (241) 
O=C1NC[C@@H](C(=O)NCc2ccc(-c3ccn[nH]3)cc2)N1

>  <alias>  (241) 
C124675-P76

>  <ref_mols>  (241) 
A1081b,A0717a

>  <inspiration_score>  (241) 
None

>  <tags>  (241) 
BulkDock Fragalysis export,fragmenstein_placed,openbind_a71ev2a_c1_scaffolds,openbind_a71ev2a_c1_knitwork_pure

>  <fragmenstein_outcome>  (241) 
acceptable

>  <fragmenstein_error>  (241) 


>  <distance_score>  (241) 
0.948377

>  <inchikey>  (241) 
YPSWQHNOQUDWBB-UHFFFAOYSA-N

>  <name>  (241) 
C124675-P76

>  <HIPPO Pose ID>  (241) 
207636

>  <Energy>  (241) 
-11.460683

>  <exports>  (241) 
['/opt/xchem-fragalysis-2/maxwin/BulkDock/OUTPUTS/openbind_a71ev2a_c1_knitwork_pure_165VWF8.sdf', '/opt/xchem-fragalysis-2/maxwin/BulkDock/OUTPUTS/openbind_a71ev2a_c1_knitwork_pure_1B07PTU.sdf', '/opt/xchem-fragalysis-2/maxwin/BulkDock/OUTPUTS/openbind_a71ev2a_c1_knitwork_pure_1B07UWE.sdf', '/opt/xchem-fragalysis-2/maxwin/openbind-hippo/a71ev2a/openbind_a71ev2a_c1_scaffold_products.sdf', '/opt/xchem-fragalysis-2/maxwin/openbind-hippo/a71ev2a/cycle_01/bulkdock/openbind_a71ev2a_c1_scaffold_products.sdf', '/opt/xchem-fragalysis-2/maxwin/openbind-hippo/a71ev2a/cycle_01/bulkdock/openbind_a71ev2a_c1_scaffolds.sdf']

>  <fragmenstein_runtime>  (241) 
1.81336

$$$$
C124677-P100
     RDKit          3D

 24 25  0  0  0  0  0  0  0  0999 V2000
    0.5346   14.3191    2.7456 C   0  0  0  0  0  0  0  0  0  0  0  0
    1.4538   13.1217    2.9973 C   0  0  2  0  0  0  0  0  0  0  0  0
    2.8531   13.5729    3.4567 C   0  0  0  0  0  0  0  0  0  0  0  0
    3.6841   14.3520    2.4440 C   0  0  0  0  0  0  0  0  0  0  0  0
    5.0157   14.5588    2.9613 N   0  0  0  0  0  0  0  0  0  0  0  0
    5.9740   15.7721    2.8217 C   0  0  0  0  0  0  0  0  0  0  0  0
    5.8030   16.8189    2.3329 O   0  0  0  0  0  0  0  0  0  0  0  0
    7.2834   15.3962    3.5281 C   0  0  0  0  0  0  0  0  0  0  0  0
    7.9754   14.2987    2.7993 C   0  0  0  0  0  0  0  0  0  0  0  0
    8.0813   12.9502    3.0636 C   0  0  0  0  0  0  0  0  0  0  0  0
    8.8087   12.4288    1.9800 C   0  0  0  0  0  0  0  0  0  0  0  0
    9.1846   13.3774    1.1204 N   0  0  0  0  0  0  0  0  0  0  0  0
    8.6465   14.5005    1.6222 N   0  0  0  0  0  0  0  0  0  0  0  0
    1.5173   12.1967    1.7642 C   0  0  0  0  0  0  0  0  0  0  0  0
    0.3440   11.2165    1.6905 C   0  0  0  0  0  0  0  0  0  0  0  0
    0.4948   10.1352    2.6349 N   0  0  0  0  0  0  0  0  0  0  0  0
   -0.5796    9.2945    3.3911 C   0  0  0  0  0  0  0  0  0  0  0  0
   -1.7453    9.3010    3.3035 O   0  0  0  0  0  0  0  0  0  0  0  0
    0.1990    8.3281    4.3094 C   0  0  1  0  0  0  0  0  0  0  0  0
    0.9273    9.0586    5.4310 C   0  0  0  0  0  0  0  0  0  0  0  0
    0.8613    8.1389    6.5374 N   0  0  0  0  0  0  0  0  0  0  0  0
    0.0172    7.0832    6.2525 C   0  0  0  0  0  0  0  0  0  0  0  0
   -0.1089    6.0721    6.9233 O   0  0  0  0  0  0  0  0  0  0  0  0
   -0.5694    7.3275    5.0237 N   0  0  0  0  0  0  0  0  0  0  0  0
  2  1  1  6
  2  3  1  0
  3  4  1  0
  4  5  1  0
  5  6  1  0
  6  7  2  0
  6  8  1  0
  8  9  1  0
  9 10  2  0
 10 11  1  0
 11 12  2  0
 12 13  1  0
  2 14  1  0
 14 15  1  0
 15 16  1  0
 16 17  1  0
 17 18  2  0
 19 17  1  1
 19 20  1  0
 20 21  1  0
 21 22  1  0
 22 23  2  0
 22 24  1  0
 13  9  1  0
 24 19  1  0
M  END
>  <ref_pdb>  (242) 
A1081b

>  <subsites>  (242) 
3 - A0541/A/147/1,17 - A1081/A/201/1

>  <HIPPO Compound ID>  (242) 
46519

>  <energy_score>  (242) 
-8.861399

>  <fragmenstein_mode>  (242) 
expansion

>  <scratch_subdir>  (242) 
/opt/xchem-fragalysis-2/maxwin/BulkDock/SCRATCH/511227/C124677-P100

>  <smiles>  (242) 
C[C@H](CCNC(=O)Cc1ccn[nH]1)CCNC(=O)[C@H]1CNC(=O)N1

>  <alias>  (242) 
C124677-P100

>  <ref_mols>  (242) 
A1081b,A0717a

>  <inspiration_score>  (242) 
None

>  <tags>  (242) 
BulkDock Fragalysis export,fragmenstein_placed,openbind_a71ev2a_c1_scaffolds,openbind_a71ev2a_c1_knitwork_pure

>  <fragmenstein_outcome>  (242) 
acceptable

>  <fragmenstein_error>  (242) 


>  <distance_score>  (242) 
0.978584

>  <inchikey>  (242) 
PCOYOLXCWOQMAP-UHFFFAOYSA-N

>  <name>  (242) 
C124677-P100

>  <HIPPO Pose ID>  (242) 
207639

>  <Energy>  (242) 
0.085528

>  <exports>  (242) 
['/opt/xchem-fragalysis-2/maxwin/BulkDock/OUTPUTS/openbind_a71ev2a_c1_knitwork_pure_165VWF8.sdf', '/opt/xchem-fragalysis-2/maxwin/BulkDock/OUTPUTS/openbind_a71ev2a_c1_knitwork_pure_1B07PTU.sdf', '/opt/xchem-fragalysis-2/maxwin/BulkDock/OUTPUTS/openbind_a71ev2a_c1_knitwork_pure_1B07UWE.sdf', '/opt/xchem-fragalysis-2/maxwin/openbind-hippo/a71ev2a/openbind_a71ev2a_c1_scaffold_products.sdf', '/opt/xchem-fragalysis-2/maxwin/openbind-hippo/a71ev2a/cycle_01/bulkdock/openbind_a71ev2a_c1_scaffold_products.sdf', '/opt/xchem-fragalysis-2/maxwin/openbind-hippo/a71ev2a/cycle_01/bulkdock/openbind_a71ev2a_c1_scaffolds.sdf']

>  <fragmenstein_runtime>  (242) 
2.213527

$$$$
C124687-P76
     RDKit          3D

 23 24  0  0  0  0  0  0  0  0999 V2000
    1.8426   12.8280    1.9432 C   0  0  0  0  0  0  0  0  0  0  0  0
    2.4737   11.4789    2.2798 C   0  0  1  0  0  0  0  0  0  0  0  0
    3.7732   11.6080    3.1206 C   0  0  0  0  0  0  0  0  0  0  0  0
    4.5859   12.7819    2.8560 N   0  0  0  0  0  0  0  0  0  0  0  0
    4.7769   14.0844    3.6829 C   0  0  0  0  0  0  0  0  0  0  0  0
    4.3694   14.3777    4.7391 O   0  0  0  0  0  0  0  0  0  0  0  0
    5.6263   15.0603    2.8525 C   0  0  0  0  0  0  0  0  0  0  0  0
    7.0798   15.1754    3.3352 C   0  0  0  0  0  0  0  0  0  0  0  0
    7.9238   14.0981    2.7532 C   0  0  0  0  0  0  0  0  0  0  0  0
    8.0483   12.7667    3.0825 C   0  0  0  0  0  0  0  0  0  0  0  0
    8.9269   12.2404    2.1208 C   0  0  0  0  0  0  0  0  0  0  0  0
    9.3667   13.1728    1.2718 N   0  0  0  0  0  0  0  0  0  0  0  0
    8.7593   14.2944    1.6864 N   0  0  0  0  0  0  0  0  0  0  0  0
    1.4886   10.6661    2.9896 N   0  0  0  0  0  0  0  0  0  0  0  0
    1.2208    9.1229    2.9434 C   0  0  0  0  0  0  0  0  0  0  0  0
    1.6986    8.2906    2.2729 O   0  0  0  0  0  0  0  0  0  0  0  0
    0.1628    8.8296    4.0590 C   0  0  2  0  0  0  0  0  0  0  0  0
    0.7980    9.2064    5.3920 C   0  0  0  0  0  0  0  0  0  0  0  0
    0.3691    8.2052    6.3256 N   0  0  0  0  0  0  0  0  0  0  0  0
   -0.1012    7.0988    5.6485 C   0  0  0  0  0  0  0  0  0  0  0  0
   -0.2798    6.0215    6.1933 O   0  0  0  0  0  0  0  0  0  0  0  0
   -0.2638    7.4527    4.3153 N   0  0  0  0  0  0  0  0  0  0  0  0
   -0.8559    6.6139    3.3037 C   0  0  0  0  0  0  0  0  0  0  0  0
  2  1  1  1
  2  3  1  0
  3  4  1  0
  4  5  1  0
  5  6  2  0
  5  7  1  0
  7  8  1  0
  8  9  1  0
  9 10  2  0
 10 11  1  0
 11 12  2  0
 12 13  1  0
  2 14  1  0
 14 15  1  0
 15 16  2  0
 17 15  1  6
 17 18  1  0
 18 19  1  0
 19 20  1  0
 20 21  2  0
 20 22  1  0
 22 23  1  0
 13  9  1  0
 22 17  1  0
M  END
>  <ref_pdb>  (243) 
A0717a

>  <subsites>  (243) 
3 - A0541/A/147/1,17 - A1081/A/201/1

>  <HIPPO Compound ID>  (243) 
46525

>  <energy_score>  (243) 
-8.243006

>  <fragmenstein_mode>  (243) 
expansion

>  <scratch_subdir>  (243) 
/opt/xchem-fragalysis-2/maxwin/BulkDock/SCRATCH/511227/C124687-P76

>  <smiles>  (243) 
C[C@@H](CNC(=O)CCc1ccn[nH]1)NC(=O)[C@@H]1CNC(=O)N1C

>  <alias>  (243) 
C124687-P76

>  <ref_mols>  (243) 
A1081b,A0717a

>  <inspiration_score>  (243) 
None

>  <tags>  (243) 
BulkDock Fragalysis export,fragmenstein_placed,openbind_a71ev2a_c1_scaffolds,openbind_a71ev2a_c1_knitwork_pure

>  <fragmenstein_outcome>  (243) 
acceptable

>  <fragmenstein_error>  (243) 


>  <distance_score>  (243) 
0.909127

>  <inchikey>  (243) 
KACSHWFKVMPBNN-UHFFFAOYSA-N

>  <name>  (243) 
C124687-P76

>  <HIPPO Pose ID>  (243) 
207660

>  <Energy>  (243) 
-0.744974

>  <exports>  (243) 
['/opt/xchem-fragalysis-2/maxwin/BulkDock/OUTPUTS/openbind_a71ev2a_c1_knitwork_pure_165VWF8.sdf', '/opt/xchem-fragalysis-2/maxwin/BulkDock/OUTPUTS/openbind_a71ev2a_c1_knitwork_pure_1B07PTU.sdf', '/opt/xchem-fragalysis-2/maxwin/BulkDock/OUTPUTS/openbind_a71ev2a_c1_knitwork_pure_1B07UWE.sdf', '/opt/xchem-fragalysis-2/maxwin/openbind-hippo/a71ev2a/openbind_a71ev2a_c1_scaffold_products.sdf', '/opt/xchem-fragalysis-2/maxwin/openbind-hippo/a71ev2a/cycle_01/bulkdock/openbind_a71ev2a_c1_scaffold_products.sdf', '/opt/xchem-fragalysis-2/maxwin/openbind-hippo/a71ev2a/cycle_01/bulkdock/openbind_a71ev2a_c1_scaffolds.sdf']

>  <fragmenstein_runtime>  (243) 
1.744977

$$$$
C124689-P100
     RDKit          3D

 23 24  0  0  0  0  0  0  0  0999 V2000
    3.8257   10.9171   -0.4158 C   0  0  0  0  0  0  0  0  0  0  0  0
    2.8472   10.3131    0.5779 C   0  0  0  0  0  0  0  0  0  0  0  0
    3.3426   10.2722    2.0364 C   0  0  2  0  0  0  0  0  0  0  0  0
    4.5927    9.3867    2.2290 C   0  0  0  0  0  0  0  0  0  0  0  0
    5.8504   10.0536    1.9396 N   0  0  0  0  0  0  0  0  0  0  0  0
    7.2989    9.7147    2.3897 C   0  0  0  0  0  0  0  0  0  0  0  0
    7.6910    8.8941    3.1233 O   0  0  0  0  0  0  0  0  0  0  0  0
    8.2498   10.6168    1.5928 C   0  0  0  0  0  0  0  0  0  0  0  0
    8.2954   12.0366    2.0529 C   0  0  0  0  0  0  0  0  0  0  0  0
    7.7656   12.7133    3.1314 C   0  0  0  0  0  0  0  0  0  0  0  0
    8.2316   14.0351    2.9982 C   0  0  0  0  0  0  0  0  0  0  0  0
    9.0135   14.1933    1.9273 N   0  0  0  0  0  0  0  0  0  0  0  0
    9.0318   12.9705    1.3693 N   0  0  0  0  0  0  0  0  0  0  0  0
    2.2290    9.8408    2.8766 N   0  0  0  0  0  0  0  0  0  0  0  0
    1.6035    8.4277    3.0802 C   0  0  0  0  0  0  0  0  0  0  0  0
    1.8364    7.4120    2.5477 O   0  0  0  0  0  0  0  0  0  0  0  0
    0.4429    8.5612    4.1075 C   0  0  2  0  0  0  0  0  0  0  0  0
    0.8391    9.2257    5.4171 C   0  0  0  0  0  0  0  0  0  0  0  0
    0.1046    8.4879    6.4198 N   0  0  0  0  0  0  0  0  0  0  0  0
    0.2548    8.7804    7.8233 C   0  0  0  0  0  0  0  0  0  0  0  0
   -0.1353    7.2042    5.9354 C   0  0  0  0  0  0  0  0  0  0  0  0
   -0.3150    6.1884    6.5873 O   0  0  0  0  0  0  0  0  0  0  0  0
   -0.0719    7.2740    4.5505 N   0  0  0  0  0  0  0  0  0  0  0  0
  1  2  1  0
  3  2  1  6
  3  4  1  0
  4  5  1  0
  5  6  1  0
  6  7  2  0
  6  8  1  0
  8  9  1  0
  9 10  2  0
 10 11  1  0
 11 12  2  0
 12 13  1  0
  3 14  1  0
 14 15  1  0
 15 16  2  0
 17 15  1  6
 17 18  1  0
 18 19  1  0
 19 20  1  0
 19 21  1  0
 21 22  2  0
 21 23  1  0
 13  9  1  0
 23 17  1  0
M  END
>  <ref_pdb>  (244) 
A1081b

>  <subsites>  (244) 
3 - A0541/A/147/1,17 - A1081/A/201/1

>  <HIPPO Compound ID>  (244) 
53709

>  <energy_score>  (244) 
-12.235175

>  <fragmenstein_mode>  (244) 
expansion

>  <scratch_subdir>  (244) 
/opt/xchem-fragalysis-2/maxwin/BulkDock/SCRATCH/511227/C124689-P100

>  <smiles>  (244) 
CC[C@H](CNC(=O)Cc1ccn[nH]1)NC(=O)[C@@H]1CN(C)C(=O)N1

>  <alias>  (244) 
C124689-P100

>  <ref_mols>  (244) 
A1081b,A0717a

>  <inspiration_score>  (244) 
None

>  <tags>  (244) 
BulkDock Fragalysis export,fragmenstein_placed,openbind_a71ev2a_c1_scaffolds,openbind_a71ev2a_c1_knitwork_pure

>  <fragmenstein_outcome>  (244) 
acceptable

>  <fragmenstein_error>  (244) 


>  <distance_score>  (244) 
0.938625

>  <inchikey>  (244) 
AEYMWTWOISXUPC-UHFFFAOYSA-N

>  <name>  (244) 
C124689-P100

>  <HIPPO Pose ID>  (244) 
207663

>  <Energy>  (244) 
21.957614

>  <exports>  (244) 
['/opt/xchem-fragalysis-2/maxwin/BulkDock/OUTPUTS/openbind_a71ev2a_c1_knitwork_pure_165VWF8.sdf', '/opt/xchem-fragalysis-2/maxwin/BulkDock/OUTPUTS/openbind_a71ev2a_c1_knitwork_pure_1B07PTU.sdf', '/opt/xchem-fragalysis-2/maxwin/BulkDock/OUTPUTS/openbind_a71ev2a_c1_knitwork_pure_1B07UWE.sdf', '/opt/xchem-fragalysis-2/maxwin/openbind-hippo/a71ev2a/openbind_a71ev2a_c1_scaffold_products.sdf', '/opt/xchem-fragalysis-2/maxwin/openbind-hippo/a71ev2a/cycle_01/bulkdock/openbind_a71ev2a_c1_scaffold_products.sdf', '/opt/xchem-fragalysis-2/maxwin/openbind-hippo/a71ev2a/cycle_01/bulkdock/openbind_a71ev2a_c1_scaffolds.sdf']

>  <fragmenstein_runtime>  (244) 
2.477938

$$$$
C124693-P100
     RDKit          3D

 22 23  0  0  0  0  0  0  0  0999 V2000
    1.9469   10.8550    0.9136 C   0  0  0  0  0  0  0  0  0  0  0  0
    2.5538   10.2210    2.1590 C   0  0  1  0  0  0  0  0  0  0  0  0
    3.5489   11.1653    2.8666 C   0  0  0  0  0  0  0  0  0  0  0  0
    4.9216   10.8349    2.5827 N   0  0  0  0  0  0  0  0  0  0  0  0
    5.8036   11.1722    1.3561 C   0  0  0  0  0  0  0  0  0  0  0  0
    5.5783   11.8341    0.4222 O   0  0  0  0  0  0  0  0  0  0  0  0
    7.1425   10.4592    1.5334 C   0  0  0  0  0  0  0  0  0  0  0  0
    8.0328   11.0481    2.6218 C   0  0  0  0  0  0  0  0  0  0  0  0
    8.3280   12.4968    2.4393 C   0  0  0  0  0  0  0  0  0  0  0  0
    7.9077   13.6019    3.1475 C   0  0  0  0  0  0  0  0  0  0  0  0
    8.5714   14.6867    2.5510 C   0  0  0  0  0  0  0  0  0  0  0  0
    9.3766   14.3052    1.5572 N   0  0  0  0  0  0  0  0  0  0  0  0
    9.1604   12.9796    1.4643 N   0  0  0  0  0  0  0  0  0  0  0  0
    1.5036    9.8088    3.0749 N   0  0  0  0  0  0  0  0  0  0  0  0
    0.9328    8.3945    3.3870 C   0  0  0  0  0  0  0  0  0  0  0  0
    1.1678    7.3587    2.8990 O   0  0  0  0  0  0  0  0  0  0  0  0
   -0.0302    8.5449    4.5935 C   0  0  2  0  0  0  0  0  0  0  0  0
    0.7306    9.0698    5.8070 C   0  0  0  0  0  0  0  0  0  0  0  0
    0.5770    8.0643    6.8195 N   0  0  0  0  0  0  0  0  0  0  0  0
   -0.0371    6.9485    6.2931 C   0  0  0  0  0  0  0  0  0  0  0  0
   -0.0410    5.8471    6.8183 O   0  0  0  0  0  0  0  0  0  0  0  0
   -0.5558    7.2705    5.0549 N   0  0  0  0  0  0  0  0  0  0  0  0
  2  1  1  6
  2  3  1  0
  3  4  1  0
  4  5  1  0
  5  6  2  0
  5  7  1  0
  7  8  1  0
  8  9  1  0
  9 10  2  0
 10 11  1  0
 11 12  2  0
 12 13  1  0
  2 14  1  0
 14 15  1  0
 15 16  2  0
 17 15  1  6
 17 18  1  0
 18 19  1  0
 19 20  1  0
 20 21  2  0
 20 22  1  0
 13  9  1  0
 22 17  1  0
M  END
>  <ref_pdb>  (245) 
A1081b

>  <subsites>  (245) 
3 - A0541/A/147/1,17 - A1081/A/201/1

>  <HIPPO Compound ID>  (245) 
125044

>  <energy_score>  (245) 
-11.781268

>  <fragmenstein_mode>  (245) 
expansion

>  <scratch_subdir>  (245) 
/opt/xchem-fragalysis-2/maxwin/BulkDock/SCRATCH/511227/C124693-P100

>  <smiles>  (245) 
C[C@@H](CNC(=O)CCc1ccn[nH]1)NC(=O)[C@@H]1CNC(=O)N1

>  <alias>  (245) 
C124693-P100

>  <ref_mols>  (245) 
A1081b,A0717a

>  <inspiration_score>  (245) 
None

>  <tags>  (245) 
BulkDock Fragalysis export,fragmenstein_placed,openbind_a71ev2a_c1_scaffolds,openbind_a71ev2a_c1_knitwork_pure

>  <fragmenstein_outcome>  (245) 
acceptable

>  <fragmenstein_error>  (245) 


>  <distance_score>  (245) 
0.490583

>  <inchikey>  (245) 
GXFRUHCYWOLZOD-UHFFFAOYSA-N

>  <name>  (245) 
C124693-P100

>  <HIPPO Pose ID>  (245) 
207671

>  <Energy>  (245) 
-7.495226

>  <exports>  (245) 
['/opt/xchem-fragalysis-2/maxwin/BulkDock/OUTPUTS/openbind_a71ev2a_c1_knitwork_pure_165VWF8.sdf', '/opt/xchem-fragalysis-2/maxwin/BulkDock/OUTPUTS/openbind_a71ev2a_c1_knitwork_pure_1B07PTU.sdf', '/opt/xchem-fragalysis-2/maxwin/BulkDock/OUTPUTS/openbind_a71ev2a_c1_knitwork_pure_1B07UWE.sdf', '/opt/xchem-fragalysis-2/maxwin/openbind-hippo/a71ev2a/openbind_a71ev2a_c1_scaffold_products.sdf', '/opt/xchem-fragalysis-2/maxwin/openbind-hippo/a71ev2a/cycle_01/bulkdock/openbind_a71ev2a_c1_scaffold_products.sdf', '/opt/xchem-fragalysis-2/maxwin/openbind-hippo/a71ev2a/cycle_01/bulkdock/openbind_a71ev2a_c1_scaffolds.sdf']

>  <fragmenstein_runtime>  (245) 
2.394173

$$$$
C39918-P76
     RDKit          3D

 24 25  0  0  0  0  0  0  0  0999 V2000
   -1.9956    5.5983    4.8493 C   0  0  0  0  0  0  0  0  0  0  0  0
   -1.3207    6.8184    5.2219 N   0  0  0  0  0  0  0  0  0  0  0  0
   -1.3114    7.9850    4.3674 C   0  0  0  0  0  0  0  0  0  0  0  0
   -0.2350    8.8789    4.9720 C   0  0  2  0  0  0  0  0  0  0  0  0
    0.8455    9.1652    3.9113 C   0  0  0  0  0  0  0  0  0  0  0  0
    1.8440    8.5641    3.8377 O   0  0  0  0  0  0  0  0  0  0  0  0
    0.3455   10.3931    3.0950 N   0  0  0  0  0  0  0  0  0  0  0  0
    0.9335   11.0669    1.9621 C   0  0  0  0  0  0  0  0  0  0  0  0
    2.4368   11.3187    2.1441 C   0  0  1  0  0  0  0  0  0  0  0  0
    2.9104   12.0918    1.0348 O   0  0  0  0  0  0  0  0  0  0  0  0
    2.7295   12.0653    3.4536 C   0  0  0  0  0  0  0  0  0  0  0  0
    4.1280   12.0026    3.7927 N   0  0  0  0  0  0  0  0  0  0  0  0
    5.2112   13.1066    3.7950 C   0  0  0  0  0  0  0  0  0  0  0  0
    5.1570   14.2180    3.4499 O   0  0  0  0  0  0  0  0  0  0  0  0
    6.4565   12.4452    4.3698 C   0  0  0  0  0  0  0  0  0  0  0  0
    7.6502   13.3825    4.4161 C   0  0  0  0  0  0  0  0  0  0  0  0
    8.2907   13.6056    3.0913 C   0  0  0  0  0  0  0  0  0  0  0  0
    8.8340   12.6407    2.2106 C   0  0  0  0  0  0  0  0  0  0  0  0
    9.3740   13.1893    1.1211 N   0  0  0  0  0  0  0  0  0  0  0  0
    9.1380   14.5003    1.2746 N   0  0  0  0  0  0  0  0  0  0  0  0
    8.5155   14.8040    2.4489 C   0  0  0  0  0  0  0  0  0  0  0  0
    0.2676    8.1292    6.1009 N   0  0  0  0  0  0  0  0  0  0  0  0
   -0.3059    6.8762    6.1628 C   0  0  0  0  0  0  0  0  0  0  0  0
    0.0473    5.9826    6.9150 O   0  0  0  0  0  0  0  0  0  0  0  0
  1  2  1  0
  2  3  1  0
  3  4  1  0
  4  5  1  6
  5  6  2  0
  5  7  1  0
  7  8  1  0
  8  9  1  0
  9 10  1  6
  9 11  1  0
 11 12  1  0
 12 13  1  0
 13 14  2  0
 13 15  1  0
 15 16  1  0
 16 17  1  0
 17 18  1  0
 18 19  2  0
 19 20  1  0
 20 21  1  0
  4 22  1  0
 22 23  1  0
 23 24  2  0
 23  2  1  0
 21 17  2  0
M  END
>  <ref_pdb>  (246) 
A0717a

>  <subsites>  (246) 
3 - A0541/A/147/1,17 - A1081/A/201/1

>  <HIPPO Compound ID>  (246) 
39918

>  <energy_score>  (246) 
-23.059825

>  <fragmenstein_mode>  (246) 
expansion

>  <scratch_subdir>  (246) 
/opt/xchem-fragalysis-2/maxwin/BulkDock/SCRATCH/511227/C39918-P76

>  <smiles>  (246) 
CN1C[C@H](C(=O)NC[C@@H](O)CNC(=O)CCc2cn[nH]c2)NC1=O

>  <alias>  (246) 
C39918-P76

>  <ref_mols>  (246) 
A1081b,A0717a

>  <inspiration_score>  (246) 
None

>  <tags>  (246) 
BulkDock Fragalysis export,fragmenstein_placed,openbind_a71ev2a_c1_scaffolds,openbind_a71ev2a_c1_knitwork_pure

>  <fragmenstein_outcome>  (246) 
acceptable

>  <fragmenstein_error>  (246) 


>  <distance_score>  (246) 
0.951638

>  <inchikey>  (246) 
FLOGMMPAFYOKFI-UHFFFAOYSA-N

>  <name>  (246) 
C39918-P76

>  <HIPPO Pose ID>  (246) 
207674

>  <Energy>  (246) 
7.038224

>  <exports>  (246) 
['/opt/xchem-fragalysis-2/maxwin/BulkDock/OUTPUTS/openbind_a71ev2a_c1_knitwork_pure_165VWF8.sdf', '/opt/xchem-fragalysis-2/maxwin/BulkDock/OUTPUTS/openbind_a71ev2a_c1_knitwork_pure_1B07PTU.sdf', '/opt/xchem-fragalysis-2/maxwin/BulkDock/OUTPUTS/openbind_a71ev2a_c1_knitwork_pure_1B07UWE.sdf', '/opt/xchem-fragalysis-2/maxwin/openbind-hippo/a71ev2a/openbind_a71ev2a_c1_scaffold_products.sdf', '/opt/xchem-fragalysis-2/maxwin/openbind-hippo/a71ev2a/cycle_01/bulkdock/openbind_a71ev2a_c1_scaffold_products.sdf', '/opt/xchem-fragalysis-2/maxwin/openbind-hippo/a71ev2a/cycle_01/bulkdock/openbind_a71ev2a_c1_scaffolds.sdf']

>  <fragmenstein_runtime>  (246) 
3.808356

$$$$
C39932-P100
     RDKit          3D

 23 25  0  0  0  0  0  0  0  0999 V2000
    5.5693   13.9526    4.8060 O   0  0  0  0  0  0  0  0  0  0  0  0
    5.9901   13.0476    4.1947 C   0  0  0  0  0  0  0  0  0  0  0  0
    7.4796   12.7212    4.1457 C   0  0  0  0  0  0  0  0  0  0  0  0
    8.1312   13.2460    2.9218 C   0  0  0  0  0  0  0  0  0  0  0  0
    8.7425   12.4959    1.8934 C   0  0  0  0  0  0  0  0  0  0  0  0
    9.2933   13.2688    0.9572 N   0  0  0  0  0  0  0  0  0  0  0  0
    9.0028   14.5156    1.3564 N   0  0  0  0  0  0  0  0  0  0  0  0
    8.3305   14.5575    2.5423 C   0  0  0  0  0  0  0  0  0  0  0  0
    5.2475   11.9311    3.4079 N   0  0  0  0  0  0  0  0  0  0  0  0
    3.8309   11.7533    3.1317 C   0  0  2  0  0  0  0  0  0  0  0  0
    3.4713   10.2441    3.0085 C   0  0  0  0  0  0  0  0  0  0  0  0
    2.4079    9.8082    3.8914 N   0  0  0  0  0  0  0  0  0  0  0  0
    0.9118   10.1937    3.9274 C   0  0  0  0  0  0  0  0  0  0  0  0
    0.2854   10.8632    3.2043 O   0  0  0  0  0  0  0  0  0  0  0  0
    0.2479    9.4986    5.1489 C   0  0  1  0  0  0  0  0  0  0  0  0
   -1.0657    8.8665    4.6705 C   0  0  0  0  0  0  0  0  0  0  0  0
   -1.1269    7.6101    5.3655 N   0  0  0  0  0  0  0  0  0  0  0  0
    0.0291    7.3537    6.0616 C   0  0  0  0  0  0  0  0  0  0  0  0
    0.2192    6.3676    6.7550 O   0  0  0  0  0  0  0  0  0  0  0  0
    0.9129    8.4026    5.8449 N   0  0  0  0  0  0  0  0  0  0  0  0
    3.3975   12.5020    1.8912 C   0  0  0  0  0  0  0  0  0  0  0  0
    3.9611   13.8439    1.4848 C   0  0  0  0  0  0  0  0  0  0  0  0
    4.2716   12.6213    0.6635 C   0  0  0  0  0  0  0  0  0  0  0  0
  1  2  2  0
  2  3  1  0
  3  4  1  0
  4  5  1  0
  5  6  2  0
  6  7  1  0
  7  8  1  0
  2  9  1  0
  9 10  1  0
 10 11  1  6
 11 12  1  0
 12 13  1  0
 13 14  2  0
 15 13  1  6
 15 16  1  0
 16 17  1  0
 17 18  1  0
 18 19  2  0
 18 20  1  0
 10 21  1  0
 21 22  1  0
 22 23  1  0
  8  4  2  0
 20 15  1  0
 23 21  1  0
M  END
>  <ref_pdb>  (247) 
A1081b

>  <subsites>  (247) 
3 - A0541/A/147/1,17 - A1081/A/201/1

>  <HIPPO Compound ID>  (247) 
56328

>  <energy_score>  (247) 
-15.240381

>  <fragmenstein_mode>  (247) 
expansion

>  <scratch_subdir>  (247) 
/opt/xchem-fragalysis-2/maxwin/BulkDock/SCRATCH/511227/C39932-P100

>  <smiles>  (247) 
O=C(Cc1cn[nH]c1)N[C@H](CNC(=O)[C@H]1CNC(=O)N1)C1CC1

>  <alias>  (247) 
C39932-P100

>  <ref_mols>  (247) 
A1081b,A0717a

>  <inspiration_score>  (247) 
None

>  <tags>  (247) 
BulkDock Fragalysis export,fragmenstein_placed,openbind_a71ev2a_c1_scaffolds,openbind_a71ev2a_c1_knitwork_pure

>  <fragmenstein_outcome>  (247) 
acceptable

>  <fragmenstein_error>  (247) 


>  <distance_score>  (247) 
0.687262

>  <inchikey>  (247) 
DWFKNXQXPRRFIK-UHFFFAOYSA-N

>  <name>  (247) 
C39932-P100

>  <HIPPO Pose ID>  (247) 
207699

>  <Energy>  (247) 
23.788952

>  <exports>  (247) 
['/opt/xchem-fragalysis-2/maxwin/BulkDock/OUTPUTS/openbind_a71ev2a_c1_knitwork_pure_165VWF8.sdf', '/opt/xchem-fragalysis-2/maxwin/BulkDock/OUTPUTS/openbind_a71ev2a_c1_knitwork_pure_1B07PTU.sdf', '/opt/xchem-fragalysis-2/maxwin/BulkDock/OUTPUTS/openbind_a71ev2a_c1_knitwork_pure_1B07UWE.sdf', '/opt/xchem-fragalysis-2/maxwin/openbind-hippo/a71ev2a/openbind_a71ev2a_c1_scaffold_products.sdf', '/opt/xchem-fragalysis-2/maxwin/openbind-hippo/a71ev2a/cycle_01/bulkdock/openbind_a71ev2a_c1_scaffold_products.sdf', '/opt/xchem-fragalysis-2/maxwin/openbind-hippo/a71ev2a/cycle_01/bulkdock/openbind_a71ev2a_c1_scaffolds.sdf']

>  <fragmenstein_runtime>  (247) 
3.161815

$$$$
C39946-P76
     RDKit          3D

 23 24  0  0  0  0  0  0  0  0999 V2000
    1.7639   13.7292    4.4195 C   0  0  0  0  0  0  0  0  0  0  0  0
    2.4679   13.0333    3.2560 C   0  0  2  0  0  0  0  0  0  0  0  0
    1.6221   11.9094    2.6274 C   0  0  0  0  0  0  0  0  0  0  0  0
    0.9977   11.0230    3.5824 N   0  0  0  0  0  0  0  0  0  0  0  0
    1.4125    9.5995    4.0625 C   0  0  0  0  0  0  0  0  0  0  0  0
    2.2766    8.9011    3.7010 O   0  0  0  0  0  0  0  0  0  0  0  0
    0.3517    9.1769    5.1088 C   0  0  1  0  0  0  0  0  0  0  0  0
   -0.8169    8.4911    4.4000 C   0  0  0  0  0  0  0  0  0  0  0  0
   -1.1409    7.3702    5.2603 N   0  0  0  0  0  0  0  0  0  0  0  0
   -2.0699    6.3440    4.8545 C   0  0  0  0  0  0  0  0  0  0  0  0
   -0.0960    7.1256    6.1454 C   0  0  0  0  0  0  0  0  0  0  0  0
    0.0524    6.1466    6.8597 O   0  0  0  0  0  0  0  0  0  0  0  0
    0.7798    8.1871    6.0649 N   0  0  0  0  0  0  0  0  0  0  0  0
    3.7952   12.6049    3.6467 N   0  0  0  0  0  0  0  0  0  0  0  0
    5.0577   13.4356    4.0062 C   0  0  0  0  0  0  0  0  0  0  0  0
    5.1976   14.5894    4.1166 O   0  0  0  0  0  0  0  0  0  0  0  0
    6.1804   12.4287    4.2207 C   0  0  0  0  0  0  0  0  0  0  0  0
    7.5445   13.0781    4.4110 C   0  0  0  0  0  0  0  0  0  0  0  0
    8.1944   13.4692    3.1308 C   0  0  0  0  0  0  0  0  0  0  0  0
    8.7981   12.6181    2.1758 C   0  0  0  0  0  0  0  0  0  0  0  0
    9.3340   13.2924    1.1568 N   0  0  0  0  0  0  0  0  0  0  0  0
    9.0391   14.5716    1.4318 N   0  0  0  0  0  0  0  0  0  0  0  0
    8.3747   14.7327    2.6115 C   0  0  0  0  0  0  0  0  0  0  0  0
  2  1  1  1
  2  3  1  0
  3  4  1  0
  4  5  1  0
  5  6  2  0
  7  5  1  6
  7  8  1  0
  8  9  1  0
  9 10  1  0
  9 11  1  0
 11 12  2  0
 11 13  1  0
  2 14  1  0
 14 15  1  0
 15 16  2  0
 15 17  1  0
 17 18  1  0
 18 19  1  0
 19 20  1  0
 20 21  2  0
 21 22  1  0
 22 23  1  0
 13  7  1  0
 23 19  2  0
M  END
>  <ref_pdb>  (248) 
A0717a

>  <subsites>  (248) 
3 - A0541/A/147/1,17 - A1081/A/201/1

>  <HIPPO Compound ID>  (248) 
45746

>  <energy_score>  (248) 
-5.048963

>  <fragmenstein_mode>  (248) 
expansion

>  <scratch_subdir>  (248) 
/opt/xchem-fragalysis-2/maxwin/BulkDock/SCRATCH/511227/C39946-P76

>  <smiles>  (248) 
C[C@H](CNC(=O)[C@H]1CN(C)C(=O)N1)NC(=O)CCc1cn[nH]c1

>  <alias>  (248) 
C39946-P76

>  <ref_mols>  (248) 
A1081b,A0717a

>  <inspiration_score>  (248) 
None

>  <tags>  (248) 
BulkDock Fragalysis export,fragmenstein_placed,openbind_a71ev2a_c1_scaffolds,openbind_a71ev2a_c1_knitwork_pure

>  <fragmenstein_outcome>  (248) 
acceptable

>  <fragmenstein_error>  (248) 


>  <distance_score>  (248) 
0.980843

>  <inchikey>  (248) 
INIOVHDPBHGSSA-UHFFFAOYSA-N

>  <name>  (248) 
C39946-P76

>  <HIPPO Pose ID>  (248) 
207728

>  <Energy>  (248) 
-10.072696

>  <exports>  (248) 
['/opt/xchem-fragalysis-2/maxwin/BulkDock/OUTPUTS/openbind_a71ev2a_c1_knitwork_pure_165VWF8.sdf', '/opt/xchem-fragalysis-2/maxwin/BulkDock/OUTPUTS/openbind_a71ev2a_c1_knitwork_pure_1B07PTU.sdf', '/opt/xchem-fragalysis-2/maxwin/BulkDock/OUTPUTS/openbind_a71ev2a_c1_knitwork_pure_1B07UWE.sdf', '/opt/xchem-fragalysis-2/maxwin/openbind-hippo/a71ev2a/openbind_a71ev2a_c1_scaffold_products.sdf', '/opt/xchem-fragalysis-2/maxwin/openbind-hippo/a71ev2a/cycle_01/bulkdock/openbind_a71ev2a_c1_scaffold_products.sdf', '/opt/xchem-fragalysis-2/maxwin/openbind-hippo/a71ev2a/cycle_01/bulkdock/openbind_a71ev2a_c1_scaffolds.sdf']

>  <fragmenstein_runtime>  (248) 
3.620607

$$$$
C32372-P76
     RDKit          3D

 24 25  0  0  0  0  0  0  0  0999 V2000
    2.7540   11.8798    0.8461 C   0  0  0  0  0  0  0  0  0  0  0  0
    3.3691   11.0487    1.9699 C   0  0  1  0  0  0  0  0  0  0  0  0
    2.8570    9.5996    1.9160 C   0  0  0  0  0  0  0  0  0  0  0  0
    1.7157    9.3773    2.7738 N   0  0  0  0  0  0  0  0  0  0  0  0
    0.9304    8.0724    3.0916 C   0  0  0  0  0  0  0  0  0  0  0  0
    1.0396    6.9975    2.6489 O   0  0  0  0  0  0  0  0  0  0  0  0
   -0.0804    8.4040    4.2442 C   0  0  2  0  0  0  0  0  0  0  0  0
    0.6706    8.9967    5.4390 C   0  0  0  0  0  0  0  0  0  0  0  0
    0.5970    7.9997    6.4679 N   0  0  0  0  0  0  0  0  0  0  0  0
   -0.1754    6.9312    6.0707 C   0  0  0  0  0  0  0  0  0  0  0  0
   -0.2479    5.8938    6.7091 O   0  0  0  0  0  0  0  0  0  0  0  0
   -0.7663    7.2584    4.8555 N   0  0  0  0  0  0  0  0  0  0  0  0
   -1.5300    6.3047    4.0865 C   0  0  0  0  0  0  0  0  0  0  0  0
    4.8165   11.1292    1.9420 N   0  0  0  0  0  0  0  0  0  0  0  0
    5.7627   12.3627    2.0420 C   0  0  0  0  0  0  0  0  0  0  0  0
    5.5155   13.5057    2.0842 O   0  0  0  0  0  0  0  0  0  0  0  0
    7.2619   11.8333    2.0806 C   0  0  0  0  0  0  0  0  0  0  0  0
    7.5477   10.9728    0.8283 C   0  0  0  0  0  0  0  0  0  0  0  0
    7.4895   10.9816    3.3441 C   0  0  0  0  0  0  0  0  0  0  0  0
    8.1992   13.0450    2.1294 C   0  0  0  0  0  0  0  0  0  0  0  0
    8.2423   14.0640    3.1203 C   0  0  0  0  0  0  0  0  0  0  0  0
    9.1410   14.9888    2.6502 C   0  0  0  0  0  0  0  0  0  0  0  0
    9.6080   14.4871    1.4750 N   0  0  0  0  0  0  0  0  0  0  0  0
    9.1118   13.2804    1.1707 N   0  0  0  0  0  0  0  0  0  0  0  0
  2  1  1  6
  2  3  1  0
  3  4  1  0
  4  5  1  0
  5  6  2  0
  7  5  1  6
  7  8  1  0
  8  9  1  0
  9 10  1  0
 10 11  2  0
 10 12  1  0
 12 13  1  0
  2 14  1  0
 14 15  1  0
 15 16  2  0
 15 17  1  0
 17 18  1  0
 17 19  1  0
 17 20  1  0
 20 21  1  0
 21 22  2  0
 22 23  1  0
 23 24  1  0
 12  7  1  0
 24 20  2  0
M  END
>  <ref_pdb>  (249) 
A0717a

>  <subsites>  (249) 
3 - A0541/A/147/1,17 - A1081/A/201/1

>  <HIPPO Compound ID>  (249) 
52406

>  <energy_score>  (249) 
-11.506619

>  <fragmenstein_mode>  (249) 
expansion

>  <scratch_subdir>  (249) 
/opt/xchem-fragalysis-2/maxwin/BulkDock/SCRATCH/511227/C32372-P76

>  <smiles>  (249) 
C[C@@H](CNC(=O)[C@@H]1CNC(=O)N1C)NC(=O)C(C)(C)c1cc[nH]n1

>  <alias>  (249) 
C32372-P76

>  <ref_mols>  (249) 
A1081b,A0717a

>  <inspiration_score>  (249) 
None

>  <tags>  (249) 
BulkDock Fragalysis export,fragmenstein_placed,openbind_a71ev2a_c1_scaffolds,openbind_a71ev2a_c1_knitwork_pure

>  <fragmenstein_outcome>  (249) 
acceptable

>  <fragmenstein_error>  (249) 


>  <distance_score>  (249) 
0.939593

>  <inchikey>  (249) 
SPHUOMUWTFJILN-UHFFFAOYSA-N

>  <name>  (249) 
C32372-P76

>  <HIPPO Pose ID>  (249) 
207808

>  <Energy>  (249) 
39.907756

>  <exports>  (249) 
['/opt/xchem-fragalysis-2/maxwin/BulkDock/OUTPUTS/openbind_a71ev2a_c1_knitwork_pure_165VWF8.sdf', '/opt/xchem-fragalysis-2/maxwin/BulkDock/OUTPUTS/openbind_a71ev2a_c1_knitwork_pure_1B07PTU.sdf', '/opt/xchem-fragalysis-2/maxwin/BulkDock/OUTPUTS/openbind_a71ev2a_c1_knitwork_pure_1B07UWE.sdf', '/opt/xchem-fragalysis-2/maxwin/openbind-hippo/a71ev2a/openbind_a71ev2a_c1_scaffold_products.sdf', '/opt/xchem-fragalysis-2/maxwin/openbind-hippo/a71ev2a/cycle_01/bulkdock/openbind_a71ev2a_c1_scaffold_products.sdf', '/opt/xchem-fragalysis-2/maxwin/openbind-hippo/a71ev2a/cycle_01/bulkdock/openbind_a71ev2a_c1_scaffolds.sdf']

>  <fragmenstein_runtime>  (249) 
3.099679

$$$$
C63894-P229
     RDKit          3D

 14 15  0  0  0  0  0  0  0  0999 V2000
    8.8881   15.3071   27.8004 N   0  0  0  0  0  0  0  0  0  0  0  0
    9.9169   15.2842   26.8328 C   0  0  0  0  0  0  0  0  0  0  0  0
   10.9634   16.1933   26.8582 C   0  0  0  0  0  0  0  0  0  0  0  0
   11.9303   16.2537   25.9204 N   0  0  0  0  0  0  0  0  0  0  0  0
   11.8107   15.4213   24.8648 C   0  0  0  0  0  0  0  0  0  0  0  0
   10.7880   14.5114   24.7153 C   0  0  0  0  0  0  0  0  0  0  0  0
    9.8090   14.4438   25.7026 C   0  0  0  0  0  0  0  0  0  0  0  0
    8.7782   13.5045   25.6930 N   0  0  0  0  0  0  0  0  0  0  0  0
    8.6987   12.4674   24.6815 C   0  0  0  0  0  0  0  0  0  0  0  0
    7.9446   11.2903   25.1636 C   0  0  0  0  0  0  0  0  0  0  0  0
    8.0621    9.9364   24.9683 C   0  0  0  0  0  0  0  0  0  0  0  0
    7.0738    9.2841   25.6618 N   0  0  0  0  0  0  0  0  0  0  0  0
    6.4241   10.2528   26.2673 C   0  0  0  0  0  0  0  0  0  0  0  0
    6.8949   11.5023   26.0200 O   0  0  0  0  0  0  0  0  0  0  0  0
  1  2  1  0
  2  3  2  0
  3  4  1  0
  4  5  2  0
  5  6  1  0
  6  7  2  0
  7  8  1  0
  8  9  1  0
  9 10  1  0
 10 11  2  0
 11 12  1  0
 12 13  2  0
 13 14  1  0
  7  2  1  0
 14 10  1  0
M  END
>  <ref_pdb>  (250) 
A3869a

>  <subsites>  (250) 
1 - Active Site

>  <HIPPO Compound ID>  (250) 
45737

>  <energy_score>  (250) 
-22.542281

>  <fragmenstein_mode>  (250) 
expansion

>  <scratch_subdir>  (250) 
/opt/xchem-fragalysis-2/maxwin/BulkDock/SCRATCH/511227/C63894-P229

>  <smiles>  (250) 
Nc1cnccc1NCc1cnco1

>  <alias>  (250) 
C63894-P229

>  <ref_mols>  (250) 
A3623a,A3869a

>  <inspiration_score>  (250) 
None

>  <tags>  (250) 
BulkDock Fragalysis export,fragmenstein_placed,openbind_a71ev2a_c1_scaffolds,openbind_a71ev2a_c1_knitwork_pure

>  <fragmenstein_outcome>  (250) 
acceptable

>  <fragmenstein_error>  (250) 


>  <distance_score>  (250) 
0.927918

>  <inchikey>  (250) 
BYVLLCRZBAXVSG-UHFFFAOYSA-N

>  <name>  (250) 
C63894-P229

>  <HIPPO Pose ID>  (250) 
208067

>  <Energy>  (250) 
49.294389

>  <exports>  (250) 
['/opt/xchem-fragalysis-2/maxwin/BulkDock/OUTPUTS/openbind_a71ev2a_c1_knitwork_pure_165VWF8.sdf', '/opt/xchem-fragalysis-2/maxwin/BulkDock/OUTPUTS/openbind_a71ev2a_c1_knitwork_pure_1B07PTU.sdf', '/opt/xchem-fragalysis-2/maxwin/BulkDock/OUTPUTS/openbind_a71ev2a_c1_knitwork_pure_1B07UWE.sdf', '/opt/xchem-fragalysis-2/maxwin/openbind-hippo/a71ev2a/openbind_a71ev2a_c1_scaffold_products.sdf', '/opt/xchem-fragalysis-2/maxwin/openbind-hippo/a71ev2a/cycle_01/bulkdock/openbind_a71ev2a_c1_scaffold_products.sdf', '/opt/xchem-fragalysis-2/maxwin/openbind-hippo/a71ev2a/cycle_01/bulkdock/openbind_a71ev2a_c1_scaffolds.sdf']

>  <fragmenstein_runtime>  (250) 
1.137207

$$$$
C63895-P229
     RDKit          3D

 14 15  0  0  0  0  0  0  0  0999 V2000
    8.2105   14.3622   21.2497 F   0  0  0  0  0  0  0  0  0  0  0  0
    9.4215   14.7176   21.7095 C   0  0  0  0  0  0  0  0  0  0  0  0
   10.2985   15.4320   20.9116 C   0  0  0  0  0  0  0  0  0  0  0  0
   11.5397   15.7843   21.3124 N   0  0  0  0  0  0  0  0  0  0  0  0
   11.9060   15.4087   22.5518 C   0  0  0  0  0  0  0  0  0  0  0  0
   11.0880   14.7059   23.4261 C   0  0  0  0  0  0  0  0  0  0  0  0
    9.8135   14.3306   22.9976 C   0  0  0  0  0  0  0  0  0  0  0  0
    8.9209   13.6217   23.8341 N   0  0  0  0  0  0  0  0  0  0  0  0
    9.4729   12.4186   24.4494 C   0  0  0  0  0  0  0  0  0  0  0  0
    8.4692   11.4674   24.9921 C   0  0  0  0  0  0  0  0  0  0  0  0
    8.2729   10.1117   24.8613 C   0  0  0  0  0  0  0  0  0  0  0  0
    7.1864    9.7211   25.6048 N   0  0  0  0  0  0  0  0  0  0  0  0
    6.7603   10.8453   26.1383 C   0  0  0  0  0  0  0  0  0  0  0  0
    7.5055   11.9449   25.8402 O   0  0  0  0  0  0  0  0  0  0  0  0
  1  2  1  0
  2  3  2  0
  3  4  1  0
  4  5  2  0
  5  6  1  0
  6  7  2  0
  7  8  1  0
  8  9  1  0
  9 10  1  0
 10 11  2  0
 11 12  1  0
 12 13  2  0
 13 14  1  0
  7  2  1  0
 14 10  1  0
M  END
>  <ref_pdb>  (251) 
A3869a

>  <subsites>  (251) 
1 - Active Site

>  <HIPPO Compound ID>  (251) 
63895

>  <energy_score>  (251) 
-17.245187

>  <fragmenstein_mode>  (251) 
expansion

>  <scratch_subdir>  (251) 
/opt/xchem-fragalysis-2/maxwin/BulkDock/SCRATCH/511227/C63895-P229

>  <smiles>  (251) 
Fc1cnccc1NCc1cnco1

>  <alias>  (251) 
C63895-P229

>  <ref_mols>  (251) 
A3623a,A3869a

>  <inspiration_score>  (251) 
None

>  <tags>  (251) 
BulkDock Fragalysis export,fragmenstein_placed,openbind_a71ev2a_c1_scaffolds,openbind_a71ev2a_c1_knitwork_pure

>  <fragmenstein_outcome>  (251) 
acceptable

>  <fragmenstein_error>  (251) 


>  <distance_score>  (251) 
0.937273

>  <inchikey>  (251) 
WJNGKPOBVKGESA-UHFFFAOYSA-N

>  <name>  (251) 
C63895-P229

>  <HIPPO Pose ID>  (251) 
208068

>  <Energy>  (251) 
51.723165

>  <exports>  (251) 
['/opt/xchem-fragalysis-2/maxwin/BulkDock/OUTPUTS/openbind_a71ev2a_c1_knitwork_pure_165VWF8.sdf', '/opt/xchem-fragalysis-2/maxwin/BulkDock/OUTPUTS/openbind_a71ev2a_c1_knitwork_pure_1B07PTU.sdf', '/opt/xchem-fragalysis-2/maxwin/BulkDock/OUTPUTS/openbind_a71ev2a_c1_knitwork_pure_1B07UWE.sdf', '/opt/xchem-fragalysis-2/maxwin/openbind-hippo/a71ev2a/openbind_a71ev2a_c1_scaffold_products.sdf', '/opt/xchem-fragalysis-2/maxwin/openbind-hippo/a71ev2a/cycle_01/bulkdock/openbind_a71ev2a_c1_scaffold_products.sdf', '/opt/xchem-fragalysis-2/maxwin/openbind-hippo/a71ev2a/cycle_01/bulkdock/openbind_a71ev2a_c1_scaffolds.sdf']

>  <fragmenstein_runtime>  (251) 
1.079249

$$$$
C46328-P354
     RDKit          3D

 19 21  0  0  0  0  0  0  0  0999 V2000
    5.3175   12.0439   28.4499 O   0  0  0  0  0  0  0  0  0  0  0  0
    5.3458   11.1607   27.6896 C   0  0  0  0  0  0  0  0  0  0  0  0
    4.5669    9.8303   27.6743 N   0  0  0  0  0  0  0  0  0  0  0  0
    3.5166    9.3468   28.5426 C   0  0  0  0  0  0  0  0  0  0  0  0
    4.0538    8.4461   29.6620 C   0  0  2  0  0  0  0  0  0  0  0  0
    2.9406    7.4899   30.1443 C   0  0  0  0  0  0  0  0  0  0  0  0
    3.1216    7.1382   31.6156 C   0  0  0  0  0  0  0  0  0  0  0  0
    3.0890    8.4010   32.4837 C   0  0  0  0  0  0  0  0  0  0  0  0
    3.6224    9.5888   31.8144 N   0  0  0  0  0  0  0  0  0  0  0  0
    4.6468    9.2590   30.8306 C   0  0  0  0  0  0  0  0  0  0  0  0
    6.2975   11.2894   26.5273 C   0  0  0  0  0  0  0  0  0  0  0  0
    6.6909   12.5805   26.1405 C   0  0  0  0  0  0  0  0  0  0  0  0
    7.6473   12.7959   25.1384 C   0  0  0  0  0  0  0  0  0  0  0  0
    8.2107   11.6646   24.5496 C   0  0  0  0  0  0  0  0  0  0  0  0
    9.1758   11.5234   23.5864 N   0  0  0  0  0  0  0  0  0  0  0  0
    9.4572   10.2506   23.2867 N   0  0  0  0  0  0  0  0  0  0  0  0
    8.6467    9.5482   24.0756 C   0  0  0  0  0  0  0  0  0  0  0  0
    7.8415   10.3710   24.8948 C   0  0  0  0  0  0  0  0  0  0  0  0
    6.8652   10.1765   25.8893 C   0  0  0  0  0  0  0  0  0  0  0  0
  1  2  2  0
  2  3  1  0
  3  4  1  0
  5  4  1  6
  5  6  1  0
  6  7  1  0
  7  8  1  0
  8  9  1  0
  9 10  1  0
  2 11  1  0
 11 12  2  0
 12 13  1  0
 13 14  2  0
 14 15  1  0
 15 16  1  0
 16 17  2  0
 17 18  1  0
 18 19  2  0
 10  5  1  0
 19 11  1  0
 18 14  1  0
M  END
>  <ref_pdb>  (252) 
A4415a

>  <subsites>  (252) 
1 - Active Site,6 - A0486/A/147/1

>  <HIPPO Compound ID>  (252) 
49222

>  <energy_score>  (252) 
-23.864814

>  <fragmenstein_mode>  (252) 
expansion

>  <scratch_subdir>  (252) 
/opt/xchem-fragalysis-2/maxwin/BulkDock/SCRATCH/511227/C46328-P354

>  <smiles>  (252) 
O=C(NC[C@@H]1CCCNC1)c1ccc2[nH]ncc2c1

>  <alias>  (252) 
C46328-P354

>  <ref_mols>  (252) 
A0486a,A4415a

>  <inspiration_score>  (252) 
None

>  <tags>  (252) 
BulkDock Fragalysis export,fragmenstein_placed,openbind_a71ev2a_c1_scaffolds,openbind_a71ev2a_c1_knitwork_pure

>  <fragmenstein_outcome>  (252) 
acceptable

>  <fragmenstein_error>  (252) 


>  <distance_score>  (252) 
0.718088

>  <inchikey>  (252) 
YTMNIWJWKYPQRC-UHFFFAOYSA-N

>  <name>  (252) 
C46328-P354

>  <HIPPO Pose ID>  (252) 
208948

>  <Energy>  (252) 
45.634687

>  <exports>  (252) 
['/opt/xchem-fragalysis-2/maxwin/BulkDock/OUTPUTS/openbind_a71ev2a_c1_knitwork_pure_165VWF8.sdf', '/opt/xchem-fragalysis-2/maxwin/BulkDock/OUTPUTS/openbind_a71ev2a_c1_knitwork_pure_1B07PTU.sdf', '/opt/xchem-fragalysis-2/maxwin/BulkDock/OUTPUTS/openbind_a71ev2a_c1_knitwork_pure_1B07UWE.sdf', '/opt/xchem-fragalysis-2/maxwin/openbind-hippo/a71ev2a/openbind_a71ev2a_c1_scaffold_products.sdf', '/opt/xchem-fragalysis-2/maxwin/openbind-hippo/a71ev2a/cycle_01/bulkdock/openbind_a71ev2a_c1_scaffold_products.sdf', '/opt/xchem-fragalysis-2/maxwin/openbind-hippo/a71ev2a/cycle_01/bulkdock/openbind_a71ev2a_c1_scaffolds.sdf']

>  <fragmenstein_runtime>  (252) 
2.616526

$$$$
C54664-P557
     RDKit          3D

 22 25  0  0  0  0  0  0  0  0999 V2000
   23.9584   28.7212   13.1461 O   0  0  0  0  0  0  0  0  0  0  0  0
   23.4237   27.8078   13.7530 C   0  0  0  0  0  0  0  0  0  0  0  0
   23.5331   27.5663   15.2264 C   0  0  0  0  0  0  0  0  0  0  0  0
   22.4401   26.5309   15.5296 C   0  0  2  0  0  0  0  0  0  0  0  0
   22.9697   25.3731   16.2902 N   0  0  0  0  0  0  0  0  0  0  0  0
   23.3384   25.7364   17.6599 C   0  0  0  0  0  0  0  0  0  0  0  0
   24.1837   24.6228   18.2788 C   0  0  0  0  0  0  0  0  0  0  0  0
   23.6982   23.2080   17.9005 C   0  0  0  0  0  0  0  0  0  0  0  0
   23.9741   22.2722   18.9885 N   0  0  0  0  0  0  0  0  0  0  0  0
   22.9803   21.8450   19.8079 N   0  0  0  0  0  0  0  0  0  0  0  0
   23.6322   21.1626   20.7531 C   0  0  0  0  0  0  0  0  0  0  0  0
   25.0293   21.1441   20.5600 C   0  0  0  0  0  0  0  0  0  0  0  0
   26.1373   20.6041   21.2359 C   0  0  0  0  0  0  0  0  0  0  0  0
   27.4166   20.8075   20.7046 C   0  0  0  0  0  0  0  0  0  0  0  0
   27.5950   21.5232   19.5225 C   0  0  0  0  0  0  0  0  0  0  0  0
   26.5043   22.0639   18.8368 C   0  0  0  0  0  0  0  0  0  0  0  0
   25.2293   21.8620   19.3856 C   0  0  0  0  0  0  0  0  0  0  0  0
   22.2328   23.2590   17.4695 C   0  0  0  0  0  0  0  0  0  0  0  0
   22.0526   24.2179   16.2871 C   0  0  0  0  0  0  0  0  0  0  0  0
   21.9230   26.1761   14.1355 C   0  0  0  0  0  0  0  0  0  0  0  0
   20.9660   25.4592   13.8800 O   0  0  0  0  0  0  0  0  0  0  0  0
   22.6263   26.8646   13.2042 N   0  0  0  0  0  0  0  0  0  0  0  0
  1  2  2  0
  2  3  1  0
  3  4  1  0
  4  5  1  6
  5  6  1  0
  6  7  1  0
  7  8  1  0
  8  9  1  0
  9 10  1  0
 10 11  2  0
 11 12  1  0
 12 13  2  0
 13 14  1  0
 14 15  2  0
 15 16  1  0
 16 17  2  0
  8 18  1  0
 18 19  1  0
  4 20  1  0
 20 21  2  0
 20 22  1  0
 22  2  1  0
 19  5  1  0
 17  9  1  0
 17 12  1  0
M  END
>  <ref_pdb>  (253) 
A5079a

>  <subsites>  (253) 
1 - Active Site,5 - A3181/A/202/1

>  <HIPPO Compound ID>  (253) 
124652

>  <energy_score>  (253) 
-39.798231

>  <fragmenstein_mode>  (253) 
expansion

>  <scratch_subdir>  (253) 
/opt/xchem-fragalysis-2/maxwin/BulkDock/SCRATCH/511227/C54664-P557

>  <smiles>  (253) 
O=C1C[C@H](N2CCC(n3ncc4ccccc43)CC2)C(=O)N1

>  <alias>  (253) 
C54664-P557

>  <ref_mols>  (253) 
A3181b,A5079a

>  <inspiration_score>  (253) 
None

>  <tags>  (253) 
BulkDock Fragalysis export,fragmenstein_placed,openbind_a71ev2a_c1_scaffolds,openbind_a71ev2a_c1_knitwork_pure

>  <fragmenstein_outcome>  (253) 
acceptable

>  <fragmenstein_error>  (253) 


>  <distance_score>  (253) 
0.414882

>  <inchikey>  (253) 
HKXZWNGJYYWBSS-UHFFFAOYSA-N

>  <name>  (253) 
C54664-P557

>  <HIPPO Pose ID>  (253) 
209597

>  <Energy>  (253) 
11.943663

>  <exports>  (253) 
['/opt/xchem-fragalysis-2/maxwin/BulkDock/OUTPUTS/openbind_a71ev2a_c1_knitwork_pure_165VWF8.sdf', '/opt/xchem-fragalysis-2/maxwin/BulkDock/OUTPUTS/openbind_a71ev2a_c1_knitwork_pure_1B07PTU.sdf', '/opt/xchem-fragalysis-2/maxwin/BulkDock/OUTPUTS/openbind_a71ev2a_c1_knitwork_pure_1B07UWE.sdf', '/opt/xchem-fragalysis-2/maxwin/openbind-hippo/a71ev2a/openbind_a71ev2a_c1_scaffold_products.sdf', '/opt/xchem-fragalysis-2/maxwin/openbind-hippo/a71ev2a/cycle_01/bulkdock/openbind_a71ev2a_c1_scaffold_products.sdf', '/opt/xchem-fragalysis-2/maxwin/openbind-hippo/a71ev2a/cycle_01/bulkdock/openbind_a71ev2a_c1_scaffolds.sdf']

>  <fragmenstein_runtime>  (253) 
1.362247

$$$$
C46023-P308
     RDKit          3D

 19 21  0  0  0  0  0  0  0  0999 V2000
   12.0923   16.3044   21.1194 C   0  0  0  0  0  0  0  0  0  0  0  0
   11.5052   14.9548   21.4888 C   0  0  0  0  0  0  0  0  0  0  0  0
   11.6535   14.6834   22.9867 C   0  0  0  0  0  0  0  0  0  0  0  0
   10.5992   15.4216   23.8054 C   0  0  0  0  0  0  0  0  0  0  0  0
    9.2191   15.1494   23.3753 N   0  0  0  0  0  0  0  0  0  0  0  0
    8.7978   13.7397   23.5338 C   0  0  0  0  0  0  0  0  0  0  0  0
    8.7552   13.2951   24.9879 C   0  0  0  0  0  0  0  0  0  0  0  0
    9.5508   13.6098   25.8684 O   0  0  0  0  0  0  0  0  0  0  0  0
    7.7067   12.3281   25.3433 C   0  0  0  0  0  0  0  0  0  0  0  0
    7.8351   10.9936   24.9291 C   0  0  0  0  0  0  0  0  0  0  0  0
    6.9020   10.0480   25.3559 C   0  0  0  0  0  0  0  0  0  0  0  0
    5.8941   10.4463   26.2154 C   0  0  0  0  0  0  0  0  0  0  0  0
    5.7706   11.7825   26.6027 C   0  0  0  0  0  0  0  0  0  0  0  0
    6.6604   12.7464   26.1695 C   0  0  0  0  0  0  0  0  0  0  0  0
    4.5986   11.9211   27.5157 C   0  0  0  0  0  0  0  0  0  0  0  0
    4.3425   10.4375   27.8562 C   0  0  0  0  0  0  0  0  0  0  0  0
    4.8532    9.6499   26.7280 N   0  0  0  0  0  0  0  0  0  0  0  0
    9.0699   15.5805   21.9724 C   0  0  0  0  0  0  0  0  0  0  0  0
   10.0445   14.8780   21.0265 C   0  0  0  0  0  0  0  0  0  0  0  0
  1  2  1  0
  2  3  1  0
  3  4  1  0
  4  5  1  0
  5  6  1  0
  6  7  1  0
  7  8  2  0
  7  9  1  0
  9 10  2  0
 10 11  1  0
 11 12  2  0
 12 13  1  0
 13 14  2  0
 13 15  1  0
 15 16  1  0
 16 17  1  0
  5 18  1  0
 18 19  1  0
 19  2  1  0
 14  9  1  0
 17 12  1  0
M  END
>  <ref_pdb>  (254) 
A4331a

>  <subsites>  (254) 
1 - Active Site

>  <HIPPO Compound ID>  (254) 
2619

>  <energy_score>  (254) 
-34.047881

>  <fragmenstein_mode>  (254) 
expansion

>  <scratch_subdir>  (254) 
/opt/xchem-fragalysis-2/maxwin/BulkDock/SCRATCH/511228/C46023-P308

>  <smiles>  (254) 
CC1CCN(CC(=O)c2ccc3c(c2)CCN3)CC1

>  <alias>  (254) 
C46023-P308

>  <ref_mols>  (254) 
A1778a,A4331a

>  <inspiration_score>  (254) 
None

>  <tags>  (254) 
BulkDock Fragalysis export,fragmenstein_placed,openbind_a71ev2a_c1_scaffolds,openbind_a71ev2a_c1_knitwork_pure

>  <fragmenstein_outcome>  (254) 
acceptable

>  <fragmenstein_error>  (254) 


>  <distance_score>  (254) 
0.681972

>  <inchikey>  (254) 
IKNFMHZKPYNCLN-UHFFFAOYSA-N

>  <name>  (254) 
C46023-P308

>  <HIPPO Pose ID>  (254) 
210081

>  <Energy>  (254) 
88.362294

>  <exports>  (254) 
['/opt/xchem-fragalysis-2/maxwin/BulkDock/OUTPUTS/openbind_a71ev2a_c1_knitwork_pure_165VWF8.sdf', '/opt/xchem-fragalysis-2/maxwin/BulkDock/OUTPUTS/openbind_a71ev2a_c1_knitwork_pure_1B07PTU.sdf', '/opt/xchem-fragalysis-2/maxwin/BulkDock/OUTPUTS/openbind_a71ev2a_c1_knitwork_pure_1B07UWE.sdf', '/opt/xchem-fragalysis-2/maxwin/openbind-hippo/a71ev2a/openbind_a71ev2a_c1_scaffold_products.sdf', '/opt/xchem-fragalysis-2/maxwin/openbind-hippo/a71ev2a/cycle_01/bulkdock/openbind_a71ev2a_c1_scaffold_products.sdf', '/opt/xchem-fragalysis-2/maxwin/openbind-hippo/a71ev2a/cycle_01/bulkdock/openbind_a71ev2a_c1_scaffolds.sdf']

>  <fragmenstein_runtime>  (254) 
6.057827

$$$$
C46024-P308
     RDKit          3D

 19 21  0  0  0  0  0  0  0  0999 V2000
   10.4148   15.8428   19.4987 C   0  0  0  0  0  0  0  0  0  0  0  0
   10.4821   15.2021   20.8820 C   0  0  1  0  0  0  0  0  0  0  0  0
   11.8106   15.5683   21.5446 C   0  0  0  0  0  0  0  0  0  0  0  0
   11.8583   15.0249   22.9632 C   0  0  0  0  0  0  0  0  0  0  0  0
   10.6514   15.5360   23.7407 C   0  0  0  0  0  0  0  0  0  0  0  0
    9.3598   15.1270   23.1666 N   0  0  0  0  0  0  0  0  0  0  0  0
    9.0730   13.6798   23.2734 C   0  0  0  0  0  0  0  0  0  0  0  0
    9.0172   13.1940   24.7229 C   0  0  0  0  0  0  0  0  0  0  0  0
    9.8582   13.4173   25.5913 O   0  0  0  0  0  0  0  0  0  0  0  0
    7.9131   12.3009   25.1034 C   0  0  0  0  0  0  0  0  0  0  0  0
    8.0013   10.9372   24.7853 C   0  0  0  0  0  0  0  0  0  0  0  0
    7.0384   10.0496   25.2708 C   0  0  0  0  0  0  0  0  0  0  0  0
    6.0403   10.5337   26.0962 C   0  0  0  0  0  0  0  0  0  0  0  0
    5.9583   11.8963   26.3918 C   0  0  0  0  0  0  0  0  0  0  0  0
    6.8801   12.8026   25.8998 C   0  0  0  0  0  0  0  0  0  0  0  0
    4.7818   12.1344   27.2777 C   0  0  0  0  0  0  0  0  0  0  0  0
    4.4680   10.6866   27.7100 C   0  0  0  0  0  0  0  0  0  0  0  0
    4.9680    9.8078   26.6459 N   0  0  0  0  0  0  0  0  0  0  0  0
    9.2813   15.6026   21.7648 C   0  0  0  0  0  0  0  0  0  0  0  0
  2  1  1  6
  2  3  1  0
  3  4  1  0
  4  5  1  0
  5  6  1  0
  6  7  1  0
  7  8  1  0
  8  9  2  0
  8 10  1  0
 10 11  2  0
 11 12  1  0
 12 13  2  0
 13 14  1  0
 14 15  2  0
 14 16  1  0
 16 17  1  0
 17 18  1  0
  6 19  1  0
 19  2  1  0
 15 10  1  0
 18 13  1  0
M  END
>  <ref_pdb>  (255) 
A4331a

>  <subsites>  (255) 
1 - Active Site

>  <HIPPO Compound ID>  (255) 
46024

>  <energy_score>  (255) 
-32.592187

>  <fragmenstein_mode>  (255) 
expansion

>  <scratch_subdir>  (255) 
/opt/xchem-fragalysis-2/maxwin/BulkDock/SCRATCH/511228/C46024-P308

>  <smiles>  (255) 
C[C@H]1CCCN(CC(=O)c2ccc3c(c2)CCN3)C1

>  <alias>  (255) 
C46024-P308

>  <ref_mols>  (255) 
A1778a,A4331a

>  <inspiration_score>  (255) 
None

>  <tags>  (255) 
BulkDock Fragalysis export,fragmenstein_placed,openbind_a71ev2a_c1_scaffolds,openbind_a71ev2a_c1_knitwork_pure

>  <fragmenstein_outcome>  (255) 
acceptable

>  <fragmenstein_error>  (255) 


>  <distance_score>  (255) 
0.687399

>  <inchikey>  (255) 
GCNBWOGZRKAZBP-UHFFFAOYSA-N

>  <name>  (255) 
C46024-P308

>  <HIPPO Pose ID>  (255) 
210082

>  <Energy>  (255) 
87.115545

>  <exports>  (255) 
['/opt/xchem-fragalysis-2/maxwin/BulkDock/OUTPUTS/openbind_a71ev2a_c1_knitwork_pure_165VWF8.sdf', '/opt/xchem-fragalysis-2/maxwin/BulkDock/OUTPUTS/openbind_a71ev2a_c1_knitwork_pure_1B07PTU.sdf', '/opt/xchem-fragalysis-2/maxwin/BulkDock/OUTPUTS/openbind_a71ev2a_c1_knitwork_pure_1B07UWE.sdf', '/opt/xchem-fragalysis-2/maxwin/openbind-hippo/a71ev2a/openbind_a71ev2a_c1_scaffold_products.sdf', '/opt/xchem-fragalysis-2/maxwin/openbind-hippo/a71ev2a/cycle_01/bulkdock/openbind_a71ev2a_c1_scaffold_products.sdf', '/opt/xchem-fragalysis-2/maxwin/openbind-hippo/a71ev2a/cycle_01/bulkdock/openbind_a71ev2a_c1_scaffolds.sdf']

>  <fragmenstein_runtime>  (255) 
5.367125

$$$$
C47049-P481
     RDKit          3D

 18 20  0  0  0  0  0  0  0  0999 V2000
   10.2027   14.6394   23.2717 C   0  0  0  0  0  0  0  0  0  0  0  0
    9.1477   13.5551   23.1581 C   0  0  0  0  0  0  0  0  0  0  0  0
    8.3097   13.3293   24.3820 C   0  0  0  0  0  0  0  0  0  0  0  0
    7.8174   12.1487   24.6946 N   0  0  0  0  0  0  0  0  0  0  0  0
    6.9260   12.2693   25.7458 C   0  0  0  0  0  0  0  0  0  0  0  0
    6.1558   11.2313   26.2986 C   0  0  0  0  0  0  0  0  0  0  0  0
    5.2684   11.5003   27.3475 C   0  0  0  0  0  0  0  0  0  0  0  0
    5.1506   12.7854   27.8814 C   0  0  0  0  0  0  0  0  0  0  0  0
    4.1979   13.0562   29.0249 C   0  0  0  0  0  0  0  0  0  0  0  0
    4.6864   12.6858   30.4415 C   0  0  1  0  0  0  0  0  0  0  0  0
    4.8927   11.1831   30.6591 C   0  0  0  0  0  0  0  0  0  0  0  0
    5.2418   10.8793   32.1210 C   0  0  0  0  0  0  0  0  0  0  0  0
    5.7768   12.0960   32.8788 C   0  0  0  0  0  0  0  0  0  0  0  0
    6.6489   12.8915   32.0257 N   0  0  0  0  0  0  0  0  0  0  0  0
    5.9439   13.4676   30.8735 C   0  0  0  0  0  0  0  0  0  0  0  0
    5.9190   13.8308   27.3408 C   0  0  0  0  0  0  0  0  0  0  0  0
    6.7920   13.5513   26.2742 C   0  0  0  0  0  0  0  0  0  0  0  0
    7.8239   14.6183   25.4086 S   0  0  0  0  0  0  0  0  0  0  0  0
  1  2  1  0
  2  3  1  0
  3  4  2  0
  4  5  1  0
  5  6  2  0
  6  7  1  0
  7  8  2  0
  8  9  1  0
 10  9  1  6
 10 11  1  0
 11 12  1  0
 12 13  1  0
 13 14  1  0
 14 15  1  0
  8 16  1  0
 16 17  2  0
 17 18  1  0
 18  3  1  0
 17  5  1  0
 15 10  1  0
M  END
>  <ref_pdb>  (256) 
A4836a

>  <subsites>  (256) 
1 - Active Site,5 - A3181/A/202/1

>  <HIPPO Compound ID>  (256) 
49904

>  <energy_score>  (256) 
-65.879278

>  <fragmenstein_mode>  (256) 
expansion

>  <scratch_subdir>  (256) 
/opt/xchem-fragalysis-2/maxwin/BulkDock/SCRATCH/511229/C47049-P481

>  <smiles>  (256) 
CCc1nc2ccc(C[C@H]3CCCNC3)cc2s1

>  <alias>  (256) 
C47049-P481

>  <ref_mols>  (256) 
A0514b,A4836a

>  <inspiration_score>  (256) 
None

>  <tags>  (256) 
BulkDock Fragalysis export,fragmenstein_placed,openbind_a71ev2a_c1_scaffolds,openbind_a71ev2a_c1_knitwork_pure

>  <fragmenstein_outcome>  (256) 
acceptable

>  <fragmenstein_error>  (256) 


>  <distance_score>  (256) 
0.824134

>  <inchikey>  (256) 
GEQKRUDQJJRSJX-UHFFFAOYSA-N

>  <name>  (256) 
C47049-P481

>  <HIPPO Pose ID>  (256) 
210809

>  <Energy>  (256) 
33.424785

>  <exports>  (256) 
['/opt/xchem-fragalysis-2/maxwin/BulkDock/OUTPUTS/openbind_a71ev2a_c1_knitwork_pure_165VWF8.sdf', '/opt/xchem-fragalysis-2/maxwin/BulkDock/OUTPUTS/openbind_a71ev2a_c1_knitwork_pure_1B07PTU.sdf', '/opt/xchem-fragalysis-2/maxwin/BulkDock/OUTPUTS/openbind_a71ev2a_c1_knitwork_pure_1B07UWE.sdf', '/opt/xchem-fragalysis-2/maxwin/openbind-hippo/a71ev2a/openbind_a71ev2a_c1_scaffold_products.sdf', '/opt/xchem-fragalysis-2/maxwin/openbind-hippo/a71ev2a/cycle_01/bulkdock/openbind_a71ev2a_c1_scaffold_products.sdf', '/opt/xchem-fragalysis-2/maxwin/openbind-hippo/a71ev2a/cycle_01/bulkdock/openbind_a71ev2a_c1_scaffolds.sdf']

>  <fragmenstein_runtime>  (256) 
2.485606

$$$$
C47057-P481
     RDKit          3D

 24 26  0  0  0  0  0  0  0  0999 V2000
   12.1863   16.0170   21.7334 C   0  0  0  0  0  0  0  0  0  0  0  0
   10.9119   15.5293   21.0550 C   0  0  0  0  0  0  0  0  0  0  0  0
   11.2660   14.9536   19.6795 C   0  0  0  0  0  0  0  0  0  0  0  0
    9.8742   16.6350   20.8490 C   0  0  0  0  0  0  0  0  0  0  0  0
   10.3364   14.4418   21.8303 O   0  0  0  0  0  0  0  0  0  0  0  0
    9.8740   14.6935   23.0864 C   0  0  0  0  0  0  0  0  0  0  0  0
    9.9926   15.7033   23.6445 O   0  0  0  0  0  0  0  0  0  0  0  0
    9.1336   13.4274   23.4852 N   0  0  0  0  0  0  0  0  0  0  0  0
    8.3434   13.1700   24.5521 C   0  0  0  0  0  0  0  0  0  0  0  0
    7.7726   12.0155   24.7865 N   0  0  0  0  0  0  0  0  0  0  0  0
    6.8902   12.1624   25.8476 C   0  0  0  0  0  0  0  0  0  0  0  0
    6.0569   11.1630   26.3820 C   0  0  0  0  0  0  0  0  0  0  0  0
    5.1848   11.4660   27.4364 C   0  0  0  0  0  0  0  0  0  0  0  0
    5.1301   12.7521   27.9781 C   0  0  0  0  0  0  0  0  0  0  0  0
    4.1638   13.0723   29.0969 C   0  0  0  0  0  0  0  0  0  0  0  0
    3.0395   14.0395   28.6786 C   0  0  1  0  0  0  0  0  0  0  0  0
    2.1324   13.4348   27.5908 C   0  0  0  0  0  0  0  0  0  0  0  0
    0.7395   14.0652   27.5711 C   0  0  0  0  0  0  0  0  0  0  0  0
    0.7312   15.4515   28.2014 C   0  0  0  0  0  0  0  0  0  0  0  0
    1.1654   15.4357   29.5999 N   0  0  0  0  0  0  0  0  0  0  0  0
    2.2015   14.4470   29.8985 C   0  0  0  0  0  0  0  0  0  0  0  0
    5.9777   13.7519   27.4782 C   0  0  0  0  0  0  0  0  0  0  0  0
    6.8417   13.4350   26.4181 C   0  0  0  0  0  0  0  0  0  0  0  0
    7.9756   14.4417   25.6196 S   0  0  0  0  0  0  0  0  0  0  0  0
  1  2  1  0
  2  3  1  0
  2  4  1  0
  2  5  1  0
  5  6  1  0
  6  7  2  0
  6  8  1  0
  8  9  1  0
  9 10  2  0
 10 11  1  0
 11 12  2  0
 12 13  1  0
 13 14  2  0
 14 15  1  0
 16 15  1  1
 16 17  1  0
 17 18  1  0
 18 19  1  0
 19 20  1  0
 20 21  1  0
 14 22  1  0
 22 23  2  0
 23 24  1  0
 24  9  1  0
 23 11  1  0
 21 16  1  0
M  END
>  <ref_pdb>  (257) 
A4836a

>  <subsites>  (257) 
1 - Active Site,5 - A3181/A/202/1

>  <HIPPO Compound ID>  (257) 
65365

>  <energy_score>  (257) 
-58.085312

>  <fragmenstein_mode>  (257) 
expansion

>  <scratch_subdir>  (257) 
/opt/xchem-fragalysis-2/maxwin/BulkDock/SCRATCH/511229/C47057-P481

>  <smiles>  (257) 
CC(C)(C)OC(=O)Nc1nc2ccc(C[C@H]3CCCNC3)cc2s1

>  <alias>  (257) 
C47057-P481

>  <ref_mols>  (257) 
A0514b,A4836a

>  <inspiration_score>  (257) 
None

>  <tags>  (257) 
BulkDock Fragalysis export,fragmenstein_placed,openbind_a71ev2a_c1_scaffolds,openbind_a71ev2a_c1_knitwork_pure

>  <fragmenstein_outcome>  (257) 
acceptable

>  <fragmenstein_error>  (257) 


>  <distance_score>  (257) 
0.800235

>  <inchikey>  (257) 
KEVJLIOFDCEABV-UHFFFAOYSA-N

>  <name>  (257) 
C47057-P481

>  <HIPPO Pose ID>  (257) 
210814

>  <Energy>  (257) 
-20.788597

>  <exports>  (257) 
['/opt/xchem-fragalysis-2/maxwin/BulkDock/OUTPUTS/openbind_a71ev2a_c1_knitwork_pure_165VWF8.sdf', '/opt/xchem-fragalysis-2/maxwin/BulkDock/OUTPUTS/openbind_a71ev2a_c1_knitwork_pure_1B07PTU.sdf', '/opt/xchem-fragalysis-2/maxwin/BulkDock/OUTPUTS/openbind_a71ev2a_c1_knitwork_pure_1B07UWE.sdf', '/opt/xchem-fragalysis-2/maxwin/openbind-hippo/a71ev2a/openbind_a71ev2a_c1_scaffold_products.sdf', '/opt/xchem-fragalysis-2/maxwin/openbind-hippo/a71ev2a/cycle_01/bulkdock/openbind_a71ev2a_c1_scaffold_products.sdf', '/opt/xchem-fragalysis-2/maxwin/openbind-hippo/a71ev2a/cycle_01/bulkdock/openbind_a71ev2a_c1_scaffolds.sdf']

>  <fragmenstein_runtime>  (257) 
12.16349

$$$$
C47072-P481
     RDKit          3D

 21 23  0  0  0  0  0  0  0  0999 V2000
    5.7743   16.0669   28.0765 O   0  0  0  0  0  0  0  0  0  0  0  0
    6.0495   15.0630   28.5941 C   0  0  0  0  0  0  0  0  0  0  0  0
    6.4657   14.7714   30.0432 N   0  0  0  0  0  0  0  0  0  0  0  0
    6.7253   15.6737   31.1488 C   0  0  1  0  0  0  0  0  0  0  0  0
    5.4357   15.9300   31.9399 C   0  0  0  0  0  0  0  0  0  0  0  0
    5.3267   15.0434   33.1853 C   0  0  0  0  0  0  0  0  0  0  0  0
    5.9950   13.6844   32.9911 C   0  0  0  0  0  0  0  0  0  0  0  0
    7.4109   13.7533   32.6075 N   0  0  0  0  0  0  0  0  0  0  0  0
    7.8035   15.0697   32.0660 C   0  0  0  0  0  0  0  0  0  0  0  0
    6.0161   13.8024   27.8160 C   0  0  0  0  0  0  0  0  0  0  0  0
    5.2227   12.7329   28.2605 C   0  0  0  0  0  0  0  0  0  0  0  0
    5.2181   11.5257   27.5755 C   0  0  0  0  0  0  0  0  0  0  0  0
    6.0042   11.3690   26.4309 C   0  0  0  0  0  0  0  0  0  0  0  0
    6.7668   12.4466   25.9355 C   0  0  0  0  0  0  0  0  0  0  0  0
    7.5284   12.4233   24.7838 N   0  0  0  0  0  0  0  0  0  0  0  0
    8.0049   13.6299   24.5404 C   0  0  0  0  0  0  0  0  0  0  0  0
    8.6056   14.0867   23.2491 C   0  0  0  0  0  0  0  0  0  0  0  0
    8.1326   13.3350   22.2167 F   0  0  0  0  0  0  0  0  0  0  0  0
    9.9579   13.9680   23.2436 F   0  0  0  0  0  0  0  0  0  0  0  0
    7.8068   14.7601   25.8155 S   0  0  0  0  0  0  0  0  0  0  0  0
    6.7665   13.6569   26.6357 C   0  0  0  0  0  0  0  0  0  0  0  0
  1  2  2  0
  2  3  1  0
  4  3  1  6
  4  5  1  0
  5  6  1  0
  6  7  1  0
  7  8  1  0
  8  9  1  0
  2 10  1  0
 10 11  2  0
 11 12  1  0
 12 13  2  0
 13 14  1  0
 14 15  1  0
 15 16  2  0
 16 17  1  0
 17 18  1  0
 17 19  1  0
 16 20  1  0
 20 21  1  0
  9  4  1  0
 21 10  1  0
 21 14  2  0
M  END
>  <ref_pdb>  (258) 
A4836a

>  <subsites>  (258) 
1 - Active Site,5 - A3181/A/202/1

>  <HIPPO Compound ID>  (258) 
47091

>  <energy_score>  (258) 
-57.562386

>  <fragmenstein_mode>  (258) 
expansion

>  <scratch_subdir>  (258) 
/opt/xchem-fragalysis-2/maxwin/BulkDock/SCRATCH/511229/C47072-P481

>  <smiles>  (258) 
O=C(N[C@H]1CCCNC1)c1cccc2nc(C(F)F)sc12

>  <alias>  (258) 
C47072-P481

>  <ref_mols>  (258) 
A0514b,A4836a

>  <inspiration_score>  (258) 
None

>  <tags>  (258) 
BulkDock Fragalysis export,fragmenstein_placed,openbind_a71ev2a_c1_scaffolds,openbind_a71ev2a_c1_knitwork_pure

>  <fragmenstein_outcome>  (258) 
acceptable

>  <fragmenstein_error>  (258) 


>  <distance_score>  (258) 
0.68086

>  <inchikey>  (258) 
FBFBYAKCUCMEEP-UHFFFAOYSA-N

>  <name>  (258) 
C47072-P481

>  <HIPPO Pose ID>  (258) 
210820

>  <Energy>  (258) 
80.070998

>  <exports>  (258) 
['/opt/xchem-fragalysis-2/maxwin/BulkDock/OUTPUTS/openbind_a71ev2a_c1_knitwork_pure_165VWF8.sdf', '/opt/xchem-fragalysis-2/maxwin/BulkDock/OUTPUTS/openbind_a71ev2a_c1_knitwork_pure_1B07PTU.sdf', '/opt/xchem-fragalysis-2/maxwin/BulkDock/OUTPUTS/openbind_a71ev2a_c1_knitwork_pure_1B07UWE.sdf', '/opt/xchem-fragalysis-2/maxwin/openbind-hippo/a71ev2a/openbind_a71ev2a_c1_scaffold_products.sdf', '/opt/xchem-fragalysis-2/maxwin/openbind-hippo/a71ev2a/cycle_01/bulkdock/openbind_a71ev2a_c1_scaffold_products.sdf', '/opt/xchem-fragalysis-2/maxwin/openbind-hippo/a71ev2a/cycle_01/bulkdock/openbind_a71ev2a_c1_scaffolds.sdf']

>  <fragmenstein_runtime>  (258) 
2.819675

$$$$
C46343-P371
     RDKit          3D

 20 22  0  0  0  0  0  0  0  0999 V2000
    9.6936   14.9645   23.6792 C   0  0  0  0  0  0  0  0  0  0  0  0
    9.0040   13.7978   23.0093 C   0  0  0  0  0  0  0  0  0  0  0  0
    8.8614   12.6462   23.8807 N   0  0  0  0  0  0  0  0  0  0  0  0
    9.8135   11.6888   23.8706 N   0  0  0  0  0  0  0  0  0  0  0  0
    9.2102   10.6434   24.4395 C   0  0  0  0  0  0  0  0  0  0  0  0
    7.9380   10.9754   24.9476 C   0  0  0  0  0  0  0  0  0  0  0  0
    6.9096   10.2938   25.6079 C   0  0  0  0  0  0  0  0  0  0  0  0
    5.7952   11.0042   26.0716 C   0  0  0  0  0  0  0  0  0  0  0  0
    5.6489   12.3615   25.7879 C   0  0  0  0  0  0  0  0  0  0  0  0
    4.5059   13.0647   26.1733 N   0  0  0  0  0  0  0  0  0  0  0  0
    3.2783   12.6142   27.0255 C   0  0  0  0  0  0  0  0  0  0  0  0
    3.0778   11.6103   27.5968 O   0  0  0  0  0  0  0  0  0  0  0  0
    2.1896   13.6965   26.9519 C   0  0  1  0  0  0  0  0  0  0  0  0
    2.6124   15.0921   27.4105 C   0  0  0  0  0  0  0  0  0  0  0  0
    1.4358   16.0599   27.2645 C   0  0  0  0  0  0  0  0  0  0  0  0
    0.8427   16.0136   25.8540 C   0  0  0  0  0  0  0  0  0  0  0  0
    0.4472   14.6627   25.4571 N   0  0  0  0  0  0  0  0  0  0  0  0
    1.5737   13.7338   25.5505 C   0  0  0  0  0  0  0  0  0  0  0  0
    6.6226   13.0387   25.0392 C   0  0  0  0  0  0  0  0  0  0  0  0
    7.7653   12.3212   24.6455 C   0  0  0  0  0  0  0  0  0  0  0  0
  1  2  1  0
  2  3  1  0
  3  4  1  0
  4  5  2  0
  5  6  1  0
  6  7  2  0
  7  8  1  0
  8  9  2  0
  9 10  1  0
 10 11  1  0
 11 12  2  0
 13 11  1  6
 13 14  1  0
 14 15  1  0
 15 16  1  0
 16 17  1  0
 17 18  1  0
  9 19  1  0
 19 20  2  0
 20  3  1  0
 20  6  1  0
 18 13  1  0
M  END
>  <ref_pdb>  (259) 
A4456a

>  <subsites>  (259) 
1 - Active Site,2 - A3977/A/202/1

>  <HIPPO Compound ID>  (259) 
16352

>  <energy_score>  (259) 
-16.377525

>  <fragmenstein_mode>  (259) 
expansion

>  <scratch_subdir>  (259) 
/opt/xchem-fragalysis-2/maxwin/BulkDock/SCRATCH/511229/C46343-P371

>  <smiles>  (259) 
CCn1ncc2ccc(NC(=O)[C@H]3CCCNC3)cc21

>  <alias>  (259) 
C46343-P371

>  <ref_mols>  (259) 
A4456a,A0497a

>  <inspiration_score>  (259) 
None

>  <tags>  (259) 
BulkDock Fragalysis export,fragmenstein_placed,openbind_a71ev2a_c1_scaffolds,openbind_a71ev2a_c1_knitwork_pure

>  <fragmenstein_outcome>  (259) 
acceptable

>  <fragmenstein_error>  (259) 


>  <distance_score>  (259) 
0.920055

>  <inchikey>  (259) 
OUQAMUZFPAKLSU-UHFFFAOYSA-N

>  <name>  (259) 
C46343-P371

>  <HIPPO Pose ID>  (259) 
211246

>  <Energy>  (259) 
34.829271

>  <exports>  (259) 
['/opt/xchem-fragalysis-2/maxwin/BulkDock/OUTPUTS/openbind_a71ev2a_c1_knitwork_pure_165VWF8.sdf', '/opt/xchem-fragalysis-2/maxwin/BulkDock/OUTPUTS/openbind_a71ev2a_c1_knitwork_pure_1B07PTU.sdf', '/opt/xchem-fragalysis-2/maxwin/BulkDock/OUTPUTS/openbind_a71ev2a_c1_knitwork_pure_1B07UWE.sdf', '/opt/xchem-fragalysis-2/maxwin/openbind-hippo/a71ev2a/openbind_a71ev2a_c1_scaffold_products.sdf', '/opt/xchem-fragalysis-2/maxwin/openbind-hippo/a71ev2a/cycle_01/bulkdock/openbind_a71ev2a_c1_scaffold_products.sdf', '/opt/xchem-fragalysis-2/maxwin/openbind-hippo/a71ev2a/cycle_01/bulkdock/openbind_a71ev2a_c1_scaffolds.sdf']

>  <fragmenstein_runtime>  (259) 
3.620889

$$$$
C46353-P371
     RDKit          3D

 17 19  0  0  0  0  0  0  0  0999 V2000
    6.0347   10.4852   25.9013 C   0  0  0  0  0  0  0  0  0  0  0  0
    5.9115   11.8610   26.0977 C   0  0  0  0  0  0  0  0  0  0  0  0
    6.9387   12.7610   25.7456 C   0  0  0  0  0  0  0  0  0  0  0  0
    6.7655   14.2451   25.9804 C   0  0  0  0  0  0  0  0  0  0  0  0
    8.0217   14.8687   26.4230 N   0  0  0  0  0  0  0  0  0  0  0  0
    7.8254   16.1887   27.0534 C   0  0  2  0  0  0  0  0  0  0  0  0
    7.0402   17.2013   26.2180 C   0  0  0  0  0  0  0  0  0  0  0  0
    6.8619   18.5097   26.9964 C   0  0  0  0  0  0  0  0  0  0  0  0
    7.9174   18.7373   28.0821 C   0  0  0  0  0  0  0  0  0  0  0  0
    9.2371   18.2458   27.6888 N   0  0  0  0  0  0  0  0  0  0  0  0
    9.2158   16.7988   27.4090 C   0  0  0  0  0  0  0  0  0  0  0  0
    8.0805   12.1760   25.1675 C   0  0  0  0  0  0  0  0  0  0  0  0
    9.2429   12.7305   24.6909 N   0  0  0  0  0  0  0  0  0  0  0  0
   10.1838   11.8255   24.3531 N   0  0  0  0  0  0  0  0  0  0  0  0
    9.5359   10.6612   24.4549 C   0  0  0  0  0  0  0  0  0  0  0  0
    8.2354   10.8113   24.9780 C   0  0  0  0  0  0  0  0  0  0  0  0
    7.1910    9.9500   25.3295 C   0  0  0  0  0  0  0  0  0  0  0  0
  1  2  2  0
  2  3  1  0
  3  4  1  0
  4  5  1  0
  6  5  1  6
  6  7  1  0
  7  8  1  0
  8  9  1  0
  9 10  1  0
 10 11  1  0
  3 12  2  0
 12 13  1  0
 13 14  1  0
 14 15  2  0
 15 16  1  0
 16 17  2  0
 17  1  1  0
 11  6  1  0
 16 12  1  0
M  END
>  <ref_pdb>  (260) 
A4456a

>  <subsites>  (260) 
1 - Active Site,2 - A3977/A/202/1

>  <HIPPO Compound ID>  (260) 
46353

>  <energy_score>  (260) 
-32.559995

>  <fragmenstein_mode>  (260) 
expansion

>  <scratch_subdir>  (260) 
/opt/xchem-fragalysis-2/maxwin/BulkDock/SCRATCH/511229/C46353-P371

>  <smiles>  (260) 
c1cc(CN[C@@H]2CCCNC2)c2[nH]ncc2c1

>  <alias>  (260) 
C46353-P371

>  <ref_mols>  (260) 
A4456a,A0497a

>  <inspiration_score>  (260) 
None

>  <tags>  (260) 
BulkDock Fragalysis export,fragmenstein_placed,openbind_a71ev2a_c1_scaffolds,openbind_a71ev2a_c1_knitwork_pure

>  <fragmenstein_outcome>  (260) 
acceptable

>  <fragmenstein_error>  (260) 


>  <distance_score>  (260) 
0.668707

>  <inchikey>  (260) 
RUAMWEYLOLJYGA-UHFFFAOYSA-N

>  <name>  (260) 
C46353-P371

>  <HIPPO Pose ID>  (260) 
211249

>  <Energy>  (260) 
47.703589

>  <exports>  (260) 
['/opt/xchem-fragalysis-2/maxwin/BulkDock/OUTPUTS/openbind_a71ev2a_c1_knitwork_pure_165VWF8.sdf', '/opt/xchem-fragalysis-2/maxwin/BulkDock/OUTPUTS/openbind_a71ev2a_c1_knitwork_pure_1B07PTU.sdf', '/opt/xchem-fragalysis-2/maxwin/BulkDock/OUTPUTS/openbind_a71ev2a_c1_knitwork_pure_1B07UWE.sdf', '/opt/xchem-fragalysis-2/maxwin/openbind-hippo/a71ev2a/openbind_a71ev2a_c1_scaffold_products.sdf', '/opt/xchem-fragalysis-2/maxwin/openbind-hippo/a71ev2a/cycle_01/bulkdock/openbind_a71ev2a_c1_scaffold_products.sdf', '/opt/xchem-fragalysis-2/maxwin/openbind-hippo/a71ev2a/cycle_01/bulkdock/openbind_a71ev2a_c1_scaffolds.sdf']

>  <fragmenstein_runtime>  (260) 
2.525559

$$$$
C13210-P291
     RDKit          3D

 13 13  0  0  0  0  0  0  0  0999 V2000
    5.5582   12.1381   27.1608 C   0  0  0  0  0  0  0  0  0  0  0  0
    6.1044   13.2434   26.2777 C   0  0  0  0  0  0  0  0  0  0  0  0
    7.1486   12.7166   25.3060 C   0  0  0  0  0  0  0  0  0  0  0  0
    7.8151   14.0396   24.3130 S   0  0  0  0  0  0  0  0  0  0  0  0
    8.4350   14.9902   25.2114 O   0  0  0  0  0  0  0  0  0  0  0  0
    6.8223   14.4053   23.3260 O   0  0  0  0  0  0  0  0  0  0  0  0
    9.0245   13.1655   23.4844 N   0  0  0  0  0  0  0  0  0  0  0  0
    9.9095   13.9830   22.7647 N   0  0  0  0  0  0  0  0  0  0  0  0
   10.9160   14.6589   23.5771 C   0  0  0  0  0  0  0  0  0  0  0  0
   12.0632   15.0336   22.6578 C   0  0  0  0  0  0  0  0  0  0  0  0
   11.6088   15.9687   21.5467 C   0  0  0  0  0  0  0  0  0  0  0  0
   10.4420   15.3523   20.7818 C   0  0  0  0  0  0  0  0  0  0  0  0
    9.3414   14.8641   21.7291 C   0  0  0  0  0  0  0  0  0  0  0  0
  1  2  1  0
  2  3  1  0
  3  4  1  0
  4  5  2  0
  4  6  2  0
  4  7  1  0
  7  8  1  0
  8  9  1  0
  9 10  1  0
 10 11  1  0
 11 12  1  0
 12 13  1  0
 13  8  1  0
M  END
>  <ref_pdb>  (261) 
A4308a

>  <subsites>  (261) 
1 - Active Site

>  <HIPPO Compound ID>  (261) 
48069

>  <energy_score>  (261) 
-35.375682

>  <fragmenstein_mode>  (261) 
expansion

>  <scratch_subdir>  (261) 
/opt/xchem-fragalysis-2/maxwin/BulkDock/SCRATCH/511229/C13210-P291

>  <smiles>  (261) 
CCCS(=O)(=O)NN1CCCCC1

>  <alias>  (261) 
C13210-P291

>  <ref_mols>  (261) 
A4308a,A0719a

>  <inspiration_score>  (261) 
None

>  <tags>  (261) 
BulkDock Fragalysis export,fragmenstein_placed,openbind_a71ev2a_c1_scaffolds,openbind_a71ev2a_c1_knitwork_pure

>  <fragmenstein_outcome>  (261) 
acceptable

>  <fragmenstein_error>  (261) 


>  <distance_score>  (261) 
0.912995

>  <inchikey>  (261) 
NZLKTHSNCGTXSD-UHFFFAOYSA-N

>  <name>  (261) 
C13210-P291

>  <HIPPO Pose ID>  (261) 
213552

>  <Energy>  (261) 
21.393006

>  <exports>  (261) 
['/opt/xchem-fragalysis-2/maxwin/BulkDock/OUTPUTS/openbind_a71ev2a_c1_knitwork_pure_165VWF8.sdf', '/opt/xchem-fragalysis-2/maxwin/BulkDock/OUTPUTS/openbind_a71ev2a_c1_knitwork_pure_1B07PTU.sdf', '/opt/xchem-fragalysis-2/maxwin/BulkDock/OUTPUTS/openbind_a71ev2a_c1_knitwork_pure_1B07UWE.sdf', '/opt/xchem-fragalysis-2/maxwin/openbind-hippo/a71ev2a/openbind_a71ev2a_c1_scaffold_products.sdf', '/opt/xchem-fragalysis-2/maxwin/openbind-hippo/a71ev2a/cycle_01/bulkdock/openbind_a71ev2a_c1_scaffold_products.sdf', '/opt/xchem-fragalysis-2/maxwin/openbind-hippo/a71ev2a/cycle_01/bulkdock/openbind_a71ev2a_c1_scaffolds.sdf']

>  <fragmenstein_runtime>  (261) 
1.447963

$$$$
C64564-P152
     RDKit          3D

 20 21  0  0  0  0  0  0  0  0999 V2000
    9.9546   11.3301   23.3776 N   0  0  0  0  0  0  0  0  0  0  0  0
    9.0058   10.9246   24.2335 C   0  0  0  0  0  0  0  0  0  0  0  0
    8.0927   11.6209   24.9785 C   0  0  0  0  0  0  0  0  0  0  0  0
    7.3541   10.6366   25.6862 C   0  0  0  0  0  0  0  0  0  0  0  0
    6.1810   10.8695   26.5587 C   0  0  0  0  0  0  0  0  0  0  0  0
    5.7910   11.9460   26.7650 O   0  0  0  0  0  0  0  0  0  0  0  0
    5.6130    9.5112   26.9768 N   0  0  0  0  0  0  0  0  0  0  0  0
    4.4826    9.1820   27.8277 C   0  0  2  0  0  0  0  0  0  0  0  0
    4.8812    8.7960   29.2458 C   0  0  0  0  0  0  0  0  0  0  0  0
    3.9323    8.2748   30.1287 C   0  0  0  0  0  0  0  0  0  0  0  0
    4.3055    7.9932   31.4420 C   0  0  0  0  0  0  0  0  0  0  0  0
    5.6031    8.2559   31.8570 C   0  0  0  0  0  0  0  0  0  0  0  0
    6.4826    8.7919   30.9359 C   0  0  0  0  0  0  0  0  0  0  0  0
    6.1561    9.0654   29.6541 N   0  0  0  0  0  0  0  0  0  0  0  0
    3.5096    8.1885   27.1691 C   0  0  0  0  0  0  0  0  0  0  0  0
    3.5288    8.2702   25.8116 F   0  0  0  0  0  0  0  0  0  0  0  0
    3.7539    6.8989   27.4758 F   0  0  0  0  0  0  0  0  0  0  0  0
    2.2304    8.4589   27.5398 F   0  0  0  0  0  0  0  0  0  0  0  0
    7.8128    9.3929   25.4208 N   0  0  0  0  0  0  0  0  0  0  0  0
    8.8006    9.6048   24.5220 N   0  0  0  0  0  0  0  0  0  0  0  0
  1  2  1  0
  2  3  2  0
  3  4  1  0
  4  5  1  0
  5  6  2  0
  5  7  1  0
  8  7  1  6
  8  9  1  0
  9 10  2  0
 10 11  1  0
 11 12  2  0
 12 13  1  0
 13 14  2  0
  8 15  1  0
 15 16  1  0
 15 17  1  0
 15 18  1  0
  4 19  2  0
 19 20  1  0
 20  2  1  0
 14  9  1  0
M  END
>  <ref_pdb>  (262) 
A3201a

>  <subsites>  (262) 
1 - Active Site

>  <HIPPO Compound ID>  (262) 
54393

>  <energy_score>  (262) 
-22.463282

>  <fragmenstein_mode>  (262) 
expansion

>  <scratch_subdir>  (262) 
/opt/xchem-fragalysis-2/maxwin/BulkDock/SCRATCH/511229/C64564-P152

>  <smiles>  (262) 
Nc1cc(C(=O)N[C@H](c2ccccn2)C(F)(F)F)n[nH]1

>  <alias>  (262) 
C64564-P152

>  <ref_mols>  (262) 
A3201a,A0556a

>  <inspiration_score>  (262) 
None

>  <tags>  (262) 
BulkDock Fragalysis export,fragmenstein_placed,openbind_a71ev2a_c1_scaffolds,openbind_a71ev2a_c1_knitwork_pure

>  <fragmenstein_outcome>  (262) 
acceptable

>  <fragmenstein_error>  (262) 


>  <distance_score>  (262) 
0.992084

>  <inchikey>  (262) 
RQFUKMGDFNPBCK-UHFFFAOYSA-N

>  <name>  (262) 
C64564-P152

>  <HIPPO Pose ID>  (262) 
213669

>  <Energy>  (262) 
114.915774

>  <exports>  (262) 
['/opt/xchem-fragalysis-2/maxwin/BulkDock/OUTPUTS/openbind_a71ev2a_c1_knitwork_pure_165VWF8.sdf', '/opt/xchem-fragalysis-2/maxwin/BulkDock/OUTPUTS/openbind_a71ev2a_c1_knitwork_pure_1B07PTU.sdf', '/opt/xchem-fragalysis-2/maxwin/BulkDock/OUTPUTS/openbind_a71ev2a_c1_knitwork_pure_1B07UWE.sdf', '/opt/xchem-fragalysis-2/maxwin/openbind-hippo/a71ev2a/openbind_a71ev2a_c1_scaffold_products.sdf', '/opt/xchem-fragalysis-2/maxwin/openbind-hippo/a71ev2a/cycle_01/bulkdock/openbind_a71ev2a_c1_scaffold_products.sdf', '/opt/xchem-fragalysis-2/maxwin/openbind-hippo/a71ev2a/cycle_01/bulkdock/openbind_a71ev2a_c1_scaffolds.sdf']

>  <fragmenstein_runtime>  (262) 
1.220024

$$$$
C51867-P219
     RDKit          3D

 12 12  0  0  0  0  0  0  0  0999 V2000
   14.0062   17.0552   19.3936 C   0  0  0  0  0  0  0  0  0  0  0  0
   13.2431   16.2393   20.3927 C   0  0  0  0  0  0  0  0  0  0  0  0
   12.1759   15.4606   19.9729 C   0  0  0  0  0  0  0  0  0  0  0  0
   11.4629   14.7537   20.9317 C   0  0  0  0  0  0  0  0  0  0  0  0
   10.3869   14.0293   20.5283 O   0  0  0  0  0  0  0  0  0  0  0  0
   11.8059   14.7893   22.2720 C   0  0  0  0  0  0  0  0  0  0  0  0
   11.0671   14.0885   23.3834 C   0  0  2  0  0  0  0  0  0  0  0  0
   11.9271   13.0418   24.0651 C   0  0  0  0  0  0  0  0  0  0  0  0
    9.6934   13.5206   23.0793 C   0  0  0  0  0  0  0  0  0  0  0  0
    9.2566   12.4655   23.5444 O   0  0  0  0  0  0  0  0  0  0  0  0
   12.9154   15.5750   22.5771 C   0  0  0  0  0  0  0  0  0  0  0  0
   13.6194   16.3106   21.6897 N   0  0  0  0  0  0  0  0  0  0  0  0
  1  2  1  0
  2  3  2  0
  3  4  1  0
  4  5  1  0
  4  6  2  0
  6  7  1  0
  7  8  1  6
  7  9  1  0
  9 10  2  0
  6 11  1  0
 11 12  2  0
 12  2  1  0
M  END
>  <ref_pdb>  (263) 
A3564a

>  <subsites>  (263) 
1 - Active Site

>  <HIPPO Compound ID>  (263) 
62954

>  <energy_score>  (263) 
-17.066175

>  <fragmenstein_mode>  (263) 
expansion

>  <scratch_subdir>  (263) 
/opt/xchem-fragalysis-2/maxwin/BulkDock/SCRATCH/511229/C51867-P219

>  <smiles>  (263) 
Cc1cc(O)c([C@H](C)C=O)cn1

>  <alias>  (263) 
C51867-P219

>  <ref_mols>  (263) 
A3564a,A4874a

>  <inspiration_score>  (263) 
None

>  <tags>  (263) 
BulkDock Fragalysis export,fragmenstein_placed,openbind_a71ev2a_c1_scaffolds,openbind_a71ev2a_c1_knitwork_pure

>  <fragmenstein_outcome>  (263) 
acceptable

>  <fragmenstein_error>  (263) 


>  <distance_score>  (263) 
0.925764

>  <inchikey>  (263) 
AKDZJBVQXJPRAV-UHFFFAOYSA-N

>  <name>  (263) 
C51867-P219

>  <HIPPO Pose ID>  (263) 
213949

>  <Energy>  (263) 
18.220037

>  <exports>  (263) 
['/opt/xchem-fragalysis-2/maxwin/BulkDock/OUTPUTS/openbind_a71ev2a_c1_knitwork_pure_165VWF8.sdf', '/opt/xchem-fragalysis-2/maxwin/BulkDock/OUTPUTS/openbind_a71ev2a_c1_knitwork_pure_1B07PTU.sdf', '/opt/xchem-fragalysis-2/maxwin/BulkDock/OUTPUTS/openbind_a71ev2a_c1_knitwork_pure_1B07UWE.sdf', '/opt/xchem-fragalysis-2/maxwin/openbind-hippo/a71ev2a/openbind_a71ev2a_c1_scaffold_products.sdf', '/opt/xchem-fragalysis-2/maxwin/openbind-hippo/a71ev2a/cycle_01/bulkdock/openbind_a71ev2a_c1_scaffold_products.sdf', '/opt/xchem-fragalysis-2/maxwin/openbind-hippo/a71ev2a/cycle_01/bulkdock/openbind_a71ev2a_c1_scaffolds.sdf']

>  <fragmenstein_runtime>  (263) 
0.875727

$$$$
C43441-P128
     RDKit          3D

 18 20  0  0  0  0  0  0  0  0999 V2000
    5.4446   12.7660   26.4721 O   0  0  0  0  0  0  0  0  0  0  0  0
    6.3984   11.6831   26.5670 S   0  0  0  0  0  0  0  0  0  0  0  0
    6.1708   10.3479   26.0629 O   0  0  0  0  0  0  0  0  0  0  0  0
    6.4218   11.4321   28.2731 C   0  0  0  0  0  0  0  0  0  0  0  0
    6.0481   10.2506   28.9305 C   0  0  0  0  0  0  0  0  0  0  0  0
    6.2164   10.3443   30.2541 N   0  0  0  0  0  0  0  0  0  0  0  0
    6.6161   11.6152   30.4420 N   0  0  0  0  0  0  0  0  0  0  0  0
    6.7858   12.3068   29.2754 C   0  0  0  0  0  0  0  0  0  0  0  0
    7.9479   12.2431   26.1569 N   0  0  0  0  0  0  0  0  0  0  0  0
    8.0964   13.7179   26.0728 C   0  0  0  0  0  0  0  0  0  0  0  0
    9.3474   14.0117   25.2492 C   0  0  0  0  0  0  0  0  0  0  0  0
    9.4476   12.7484   24.4752 C   0  0  0  0  0  0  0  0  0  0  0  0
   10.2514   12.5282   23.3868 C   0  0  0  0  0  0  0  0  0  0  0  0
   10.2553   11.2427   22.8860 C   0  0  0  0  0  0  0  0  0  0  0  0
    9.5518   10.2075   23.5052 C   0  0  0  0  0  0  0  0  0  0  0  0
    9.7846    8.4591   22.9070 Br  0  0  0  0  0  0  0  0  0  0  0  0
    8.7172   10.4442   24.5793 C   0  0  0  0  0  0  0  0  0  0  0  0
    8.6376   11.7393   25.0211 C   0  0  0  0  0  0  0  0  0  0  0  0
  1  2  2  0
  2  3  2  0
  2  4  1  0
  4  5  1  0
  5  6  2  0
  6  7  1  0
  7  8  1  0
  2  9  1  0
  9 10  1  0
 10 11  1  0
 11 12  1  0
 12 13  2  0
 13 14  1  0
 14 15  2  0
 15 16  1  0
 15 17  1  0
 17 18  2  0
  8  4  2  0
 18  9  1  0
 18 12  1  0
M  END
>  <ref_pdb>  (264) 
A2304a

>  <subsites>  (264) 
1 - Active Site

>  <HIPPO Compound ID>  (264) 
62780

>  <energy_score>  (264) 
-36.546706

>  <fragmenstein_mode>  (264) 
expansion

>  <scratch_subdir>  (264) 
/opt/xchem-fragalysis-2/maxwin/BulkDock/SCRATCH/511229/C43441-P128

>  <smiles>  (264) 
O=S(=O)(c1cn[nH]c1)N1CCc2ccc(Br)cc21

>  <alias>  (264) 
C43441-P128

>  <ref_mols>  (264) 
A2304a,A1778a

>  <inspiration_score>  (264) 
None

>  <tags>  (264) 
BulkDock Fragalysis export,fragmenstein_placed,openbind_a71ev2a_c1_scaffolds,openbind_a71ev2a_c1_knitwork_pure

>  <fragmenstein_outcome>  (264) 
acceptable

>  <fragmenstein_error>  (264) 


>  <distance_score>  (264) 
0.87101

>  <inchikey>  (264) 
ACNOULRBXOAPRM-UHFFFAOYSA-N

>  <name>  (264) 
C43441-P128

>  <HIPPO Pose ID>  (264) 
214211

>  <Energy>  (264) 
14.417557

>  <exports>  (264) 
['/opt/xchem-fragalysis-2/maxwin/BulkDock/OUTPUTS/openbind_a71ev2a_c1_knitwork_pure_165VWF8.sdf', '/opt/xchem-fragalysis-2/maxwin/BulkDock/OUTPUTS/openbind_a71ev2a_c1_knitwork_pure_1B07PTU.sdf', '/opt/xchem-fragalysis-2/maxwin/BulkDock/OUTPUTS/openbind_a71ev2a_c1_knitwork_pure_1B07UWE.sdf', '/opt/xchem-fragalysis-2/maxwin/openbind-hippo/a71ev2a/openbind_a71ev2a_c1_scaffold_products.sdf', '/opt/xchem-fragalysis-2/maxwin/openbind-hippo/a71ev2a/cycle_01/bulkdock/openbind_a71ev2a_c1_scaffold_products.sdf', '/opt/xchem-fragalysis-2/maxwin/openbind-hippo/a71ev2a/cycle_01/bulkdock/openbind_a71ev2a_c1_scaffolds.sdf']

>  <fragmenstein_runtime>  (264) 
2.168834

$$$$
C60693-P128
     RDKit          3D

 18 20  0  0  0  0  0  0  0  0999 V2000
    9.6217    8.5205   23.2078 C   0  0  0  0  0  0  0  0  0  0  0  0
    9.4840    9.9643   23.5499 C   0  0  0  0  0  0  0  0  0  0  0  0
   10.1825   10.9113   22.7982 C   0  0  0  0  0  0  0  0  0  0  0  0
   10.2624   12.2451   23.1572 C   0  0  0  0  0  0  0  0  0  0  0  0
    9.5225   12.6279   24.2446 C   0  0  0  0  0  0  0  0  0  0  0  0
    8.6831   11.7284   24.9152 C   0  0  0  0  0  0  0  0  0  0  0  0
    8.6851   10.3862   24.6065 C   0  0  0  0  0  0  0  0  0  0  0  0
    8.0659   12.3916   26.0106 N   0  0  0  0  0  0  0  0  0  0  0  0
    6.5407   11.9420   26.5856 S   0  0  0  0  0  0  0  0  0  0  0  0
    5.5948   13.0154   26.3801 O   0  0  0  0  0  0  0  0  0  0  0  0
    6.2599   10.5504   26.3118 O   0  0  0  0  0  0  0  0  0  0  0  0
    6.6651   11.9636   28.3093 C   0  0  0  0  0  0  0  0  0  0  0  0
    6.2200   10.9511   29.1722 C   0  0  0  0  0  0  0  0  0  0  0  0
    6.4865   11.2343   30.4522 N   0  0  0  0  0  0  0  0  0  0  0  0
    7.0322   12.4635   30.4085 N   0  0  0  0  0  0  0  0  0  0  0  0
    7.1888   12.9374   29.1350 C   0  0  0  0  0  0  0  0  0  0  0  0
    8.2898   13.8420   25.7720 C   0  0  0  0  0  0  0  0  0  0  0  0
    9.5298   13.9652   24.8928 C   0  0  0  0  0  0  0  0  0  0  0  0
  1  2  1  0
  2  3  2  0
  3  4  1  0
  4  5  2  0
  5  6  1  0
  6  7  2  0
  6  8  1  0
  8  9  1  0
  9 10  2  0
  9 11  2  0
  9 12  1  0
 12 13  1  0
 13 14  2  0
 14 15  1  0
 15 16  1  0
  8 17  1  0
 17 18  1  0
  7  2  1  0
 16 12  2  0
 18  5  1  0
M  END
>  <ref_pdb>  (265) 
A2304a

>  <subsites>  (265) 
1 - Active Site

>  <HIPPO Compound ID>  (265) 
47626

>  <energy_score>  (265) 
-32.341412

>  <fragmenstein_mode>  (265) 
expansion

>  <scratch_subdir>  (265) 
/opt/xchem-fragalysis-2/maxwin/BulkDock/SCRATCH/511229/C60693-P128

>  <smiles>  (265) 
Cc1ccc2c(c1)N(S(=O)(=O)c1cn[nH]c1)CC2

>  <alias>  (265) 
C60693-P128

>  <ref_mols>  (265) 
A2304a,A1778a

>  <inspiration_score>  (265) 
None

>  <tags>  (265) 
BulkDock Fragalysis export,fragmenstein_placed,openbind_a71ev2a_c1_scaffolds,openbind_a71ev2a_c1_knitwork_pure

>  <fragmenstein_outcome>  (265) 
acceptable

>  <fragmenstein_error>  (265) 


>  <distance_score>  (265) 
0.812121

>  <inchikey>  (265) 
TVPOKXROJNSOOF-UHFFFAOYSA-N

>  <name>  (265) 
C60693-P128

>  <HIPPO Pose ID>  (265) 
214224

>  <Energy>  (265) 
20.174537

>  <exports>  (265) 
['/opt/xchem-fragalysis-2/maxwin/BulkDock/OUTPUTS/openbind_a71ev2a_c1_knitwork_pure_165VWF8.sdf', '/opt/xchem-fragalysis-2/maxwin/BulkDock/OUTPUTS/openbind_a71ev2a_c1_knitwork_pure_1B07PTU.sdf', '/opt/xchem-fragalysis-2/maxwin/BulkDock/OUTPUTS/openbind_a71ev2a_c1_knitwork_pure_1B07UWE.sdf', '/opt/xchem-fragalysis-2/maxwin/openbind-hippo/a71ev2a/openbind_a71ev2a_c1_scaffold_products.sdf', '/opt/xchem-fragalysis-2/maxwin/openbind-hippo/a71ev2a/cycle_01/bulkdock/openbind_a71ev2a_c1_scaffold_products.sdf', '/opt/xchem-fragalysis-2/maxwin/openbind-hippo/a71ev2a/cycle_01/bulkdock/openbind_a71ev2a_c1_scaffolds.sdf']

>  <fragmenstein_runtime>  (265) 
1.844481

$$$$
C60696-P128
     RDKit          3D

 23 25  0  0  0  0  0  0  0  0999 V2000
    8.9201    7.2766   20.0336 C   0  0  0  0  0  0  0  0  0  0  0  0
    8.7611    7.3398   21.5781 C   0  0  0  0  0  0  0  0  0  0  0  0
    9.4648    8.5770   21.9768 N   0  0  0  0  0  0  0  0  0  0  0  0
    9.8287    8.7570   23.5474 S   0  0  0  0  0  0  0  0  0  0  0  0
    8.7792    8.2006   24.3550 O   0  0  0  0  0  0  0  0  0  0  0  0
   11.2216    8.4221   23.6467 O   0  0  0  0  0  0  0  0  0  0  0  0
    9.6469   10.4721   23.7012 C   0  0  0  0  0  0  0  0  0  0  0  0
   10.3603   11.3620   22.8973 C   0  0  0  0  0  0  0  0  0  0  0  0
   10.4552   12.6934   23.2318 C   0  0  0  0  0  0  0  0  0  0  0  0
    9.7279   13.0815   24.3254 C   0  0  0  0  0  0  0  0  0  0  0  0
    8.8549   12.2102   24.9939 C   0  0  0  0  0  0  0  0  0  0  0  0
    8.8296   10.8896   24.7230 C   0  0  0  0  0  0  0  0  0  0  0  0
    8.2513   12.8470   26.0960 N   0  0  0  0  0  0  0  0  0  0  0  0
    6.7062   12.3724   26.6216 S   0  0  0  0  0  0  0  0  0  0  0  0
    5.7098   13.3016   26.1472 O   0  0  0  0  0  0  0  0  0  0  0  0
    6.5446   10.9362   26.5728 O   0  0  0  0  0  0  0  0  0  0  0  0
    6.6442   12.6689   28.3156 C   0  0  0  0  0  0  0  0  0  0  0  0
    7.5899   13.3577   29.0784 C   0  0  0  0  0  0  0  0  0  0  0  0
    7.2346   13.4447   30.3598 N   0  0  0  0  0  0  0  0  0  0  0  0
    6.0638   12.7836   30.4190 N   0  0  0  0  0  0  0  0  0  0  0  0
    5.6581   12.3060   29.2075 C   0  0  0  0  0  0  0  0  0  0  0  0
    8.5051   14.2764   25.8311 C   0  0  0  0  0  0  0  0  0  0  0  0
    9.7840   14.3920   25.0115 C   0  0  0  0  0  0  0  0  0  0  0  0
  1  2  1  0
  2  3  1  0
  3  4  1  0
  4  5  2  0
  4  6  2  0
  4  7  1  0
  7  8  2  0
  8  9  1  0
  9 10  2  0
 10 11  1  0
 11 12  2  0
 11 13  1  0
 13 14  1  0
 14 15  2  0
 14 16  2  0
 14 17  1  0
 17 18  1  0
 18 19  2  0
 19 20  1  0
 20 21  1  0
 13 22  1  0
 22 23  1  0
 12  7  1  0
 21 17  2  0
 23 10  1  0
M  END
>  <ref_pdb>  (266) 
A2304a

>  <subsites>  (266) 
1 - Active Site

>  <HIPPO Compound ID>  (266) 
60696

>  <energy_score>  (266) 
-228.084576

>  <fragmenstein_mode>  (266) 
expansion

>  <scratch_subdir>  (266) 
/opt/xchem-fragalysis-2/maxwin/BulkDock/SCRATCH/511229/C60696-P128

>  <smiles>  (266) 
CCNS(=O)(=O)c1ccc2c(c1)N(S(=O)(=O)c1cn[nH]c1)CC2

>  <alias>  (266) 
C60696-P128

>  <ref_mols>  (266) 
A2304a,A1778a

>  <inspiration_score>  (266) 
None

>  <tags>  (266) 
BulkDock Fragalysis export,fragmenstein_placed,openbind_a71ev2a_c1_scaffolds,openbind_a71ev2a_c1_knitwork_pure

>  <fragmenstein_outcome>  (266) 
acceptable

>  <fragmenstein_error>  (266) 


>  <distance_score>  (266) 
0.98289

>  <inchikey>  (266) 
PBRDYGOIOPNLNB-UHFFFAOYSA-N

>  <name>  (266) 
C60696-P128

>  <HIPPO Pose ID>  (266) 
214226

>  <Energy>  (266) 
-19.619125

>  <exports>  (266) 
['/opt/xchem-fragalysis-2/maxwin/BulkDock/OUTPUTS/openbind_a71ev2a_c1_knitwork_pure_165VWF8.sdf', '/opt/xchem-fragalysis-2/maxwin/BulkDock/OUTPUTS/openbind_a71ev2a_c1_knitwork_pure_1B07PTU.sdf', '/opt/xchem-fragalysis-2/maxwin/BulkDock/OUTPUTS/openbind_a71ev2a_c1_knitwork_pure_1B07UWE.sdf', '/opt/xchem-fragalysis-2/maxwin/openbind-hippo/a71ev2a/openbind_a71ev2a_c1_scaffold_products.sdf', '/opt/xchem-fragalysis-2/maxwin/openbind-hippo/a71ev2a/cycle_01/bulkdock/openbind_a71ev2a_c1_scaffold_products.sdf', '/opt/xchem-fragalysis-2/maxwin/openbind-hippo/a71ev2a/cycle_01/bulkdock/openbind_a71ev2a_c1_scaffolds.sdf']

>  <fragmenstein_runtime>  (266) 
4.683649

$$$$
C60700-P128
     RDKit          3D

 18 20  0  0  0  0  0  0  0  0999 V2000
    5.4677   12.7915   26.4531 O   0  0  0  0  0  0  0  0  0  0  0  0
    6.4034   11.6930   26.5506 S   0  0  0  0  0  0  0  0  0  0  0  0
    6.1443   10.3537   26.0740 O   0  0  0  0  0  0  0  0  0  0  0  0
    6.4503   11.4731   28.2603 C   0  0  0  0  0  0  0  0  0  0  0  0
    6.0776   10.3071   28.9454 C   0  0  0  0  0  0  0  0  0  0  0  0
    6.2657   10.4248   30.2644 N   0  0  0  0  0  0  0  0  0  0  0  0
    6.6753   11.6967   30.4227 N   0  0  0  0  0  0  0  0  0  0  0  0
    6.8343   12.3643   29.2405 C   0  0  0  0  0  0  0  0  0  0  0  0
    7.9545   12.2164   26.1035 N   0  0  0  0  0  0  0  0  0  0  0  0
    8.1251   13.6889   25.9740 C   0  0  0  0  0  0  0  0  0  0  0  0
    9.3726   13.9298   25.1281 C   0  0  0  0  0  0  0  0  0  0  0  0
    9.4500   12.6365   24.3991 C   0  0  0  0  0  0  0  0  0  0  0  0
   10.2380   12.3654   23.3106 C   0  0  0  0  0  0  0  0  0  0  0  0
   10.2111   11.0633   22.8482 C   0  0  0  0  0  0  0  0  0  0  0  0
    9.5021   10.0537   23.4991 C   0  0  0  0  0  0  0  0  0  0  0  0
    9.6728    8.4492   22.9511 Cl  0  0  0  0  0  0  0  0  0  0  0  0
    8.6871   10.3427   24.5778 C   0  0  0  0  0  0  0  0  0  0  0  0
    8.6316   11.6567   24.9834 C   0  0  0  0  0  0  0  0  0  0  0  0
  1  2  2  0
  2  3  2  0
  2  4  1  0
  4  5  1  0
  5  6  2  0
  6  7  1  0
  7  8  1  0
  2  9  1  0
  9 10  1  0
 10 11  1  0
 11 12  1  0
 12 13  2  0
 13 14  1  0
 14 15  2  0
 15 16  1  0
 15 17  1  0
 17 18  2  0
  8  4  2  0
 18  9  1  0
 18 12  1  0
M  END
>  <ref_pdb>  (267) 
A2304a

>  <subsites>  (267) 
1 - Active Site

>  <HIPPO Compound ID>  (267) 
48075

>  <energy_score>  (267) 
-34.364293

>  <fragmenstein_mode>  (267) 
expansion

>  <scratch_subdir>  (267) 
/opt/xchem-fragalysis-2/maxwin/BulkDock/SCRATCH/511229/C60700-P128

>  <smiles>  (267) 
O=S(=O)(c1cn[nH]c1)N1CCc2ccc(Cl)cc21

>  <alias>  (267) 
C60700-P128

>  <ref_mols>  (267) 
A2304a,A1778a

>  <inspiration_score>  (267) 
None

>  <tags>  (267) 
BulkDock Fragalysis export,fragmenstein_placed,openbind_a71ev2a_c1_scaffolds,openbind_a71ev2a_c1_knitwork_pure

>  <fragmenstein_outcome>  (267) 
acceptable

>  <fragmenstein_error>  (267) 


>  <distance_score>  (267) 
0.847243

>  <inchikey>  (267) 
FLFOERJJQTUYPD-UHFFFAOYSA-N

>  <name>  (267) 
C60700-P128

>  <HIPPO Pose ID>  (267) 
214227

>  <Energy>  (267) 
12.509286

>  <exports>  (267) 
['/opt/xchem-fragalysis-2/maxwin/BulkDock/OUTPUTS/openbind_a71ev2a_c1_knitwork_pure_165VWF8.sdf', '/opt/xchem-fragalysis-2/maxwin/BulkDock/OUTPUTS/openbind_a71ev2a_c1_knitwork_pure_1B07PTU.sdf', '/opt/xchem-fragalysis-2/maxwin/BulkDock/OUTPUTS/openbind_a71ev2a_c1_knitwork_pure_1B07UWE.sdf', '/opt/xchem-fragalysis-2/maxwin/openbind-hippo/a71ev2a/openbind_a71ev2a_c1_scaffold_products.sdf', '/opt/xchem-fragalysis-2/maxwin/openbind-hippo/a71ev2a/cycle_01/bulkdock/openbind_a71ev2a_c1_scaffold_products.sdf', '/opt/xchem-fragalysis-2/maxwin/openbind-hippo/a71ev2a/cycle_01/bulkdock/openbind_a71ev2a_c1_scaffolds.sdf']

>  <fragmenstein_runtime>  (267) 
1.905663

$$$$
C24948-P137
     RDKit          3D

 14 15  0  0  0  0  0  0  0  0999 V2000
   15.9318   12.7147    0.7898 C   0  0  0  0  0  0  0  0  0  0  0  0
   16.6312   14.0577    0.6254 C   0  0  2  0  0  0  0  0  0  0  0  0
   17.9822   13.9499   -0.0675 C   0  0  0  0  0  0  0  0  0  0  0  0
   18.9321   13.7234    1.0924 C   0  0  1  0  0  0  0  0  0  0  0  0
   20.3897   14.0637    0.7749 C   0  0  0  0  0  0  0  0  0  0  0  0
   21.2315   13.8541    1.9478 N   0  0  0  0  0  0  0  0  0  0  0  0
   22.6577   14.1289    1.7055 C   0  0  0  0  0  0  0  0  0  0  0  0
   22.9641   15.5993    1.6280 C   0  0  0  0  0  0  0  0  0  0  0  0
   22.1772   16.7099    1.8781 C   0  0  0  0  0  0  0  0  0  0  0  0
   22.9794   17.7923    1.6455 N   0  0  0  0  0  0  0  0  0  0  0  0
   24.2038   17.3228    1.2738 C   0  0  0  0  0  0  0  0  0  0  0  0
   24.2262   16.0117    1.2510 N   0  0  0  0  0  0  0  0  0  0  0  0
   18.3015   14.5895    2.1685 C   0  0  0  0  0  0  0  0  0  0  0  0
   16.8859   14.5993    1.9342 O   0  0  0  0  0  0  0  0  0  0  0  0
  2  1  1  1
  2  3  1  0
  3  4  1  0
  4  5  1  6
  5  6  1  0
  6  7  1  0
  7  8  1  0
  8  9  2  0
  9 10  1  0
 10 11  1  0
 11 12  2  0
  4 13  1  0
 13 14  1  0
 14  2  1  0
 12  8  1  0
M  END
>  <ref_pdb>  (268) 
A2972a

>  <subsites>  (268) 
1 - Active Site,6 - A0486/A/147/1

>  <HIPPO Compound ID>  (268) 
53748

>  <energy_score>  (268) 
-36.171223

>  <fragmenstein_mode>  (268) 
expansion

>  <scratch_subdir>  (268) 
/opt/xchem-fragalysis-2/maxwin/BulkDock/SCRATCH/511229/C24948-P137

>  <smiles>  (268) 
C[C@@H]1C[C@@H](CNCc2c[nH]cn2)CO1

>  <alias>  (268) 
C24948-P137

>  <ref_mols>  (268) 
A2972a,A0608a

>  <inspiration_score>  (268) 
None

>  <tags>  (268) 
BulkDock Fragalysis export,fragmenstein_placed,openbind_a71ev2a_c1_scaffolds,openbind_a71ev2a_c1_knitwork_pure

>  <fragmenstein_outcome>  (268) 
acceptable

>  <fragmenstein_error>  (268) 


>  <distance_score>  (268) 
0.899313

>  <inchikey>  (268) 
NVPORXZYZSHULI-UHFFFAOYSA-N

>  <name>  (268) 
C24948-P137

>  <HIPPO Pose ID>  (268) 
214341

>  <Energy>  (268) 
25.58526

>  <exports>  (268) 
['/opt/xchem-fragalysis-2/maxwin/BulkDock/OUTPUTS/openbind_a71ev2a_c1_knitwork_pure_165VWF8.sdf', '/opt/xchem-fragalysis-2/maxwin/BulkDock/OUTPUTS/openbind_a71ev2a_c1_knitwork_pure_1B07PTU.sdf', '/opt/xchem-fragalysis-2/maxwin/BulkDock/OUTPUTS/openbind_a71ev2a_c1_knitwork_pure_1B07UWE.sdf', '/opt/xchem-fragalysis-2/maxwin/openbind-hippo/a71ev2a/openbind_a71ev2a_c1_scaffold_products.sdf', '/opt/xchem-fragalysis-2/maxwin/openbind-hippo/a71ev2a/cycle_01/bulkdock/openbind_a71ev2a_c1_scaffold_products.sdf', '/opt/xchem-fragalysis-2/maxwin/openbind-hippo/a71ev2a/cycle_01/bulkdock/openbind_a71ev2a_c1_scaffolds.sdf']

>  <fragmenstein_runtime>  (268) 
1.404872

$$$$
C54664-P384
     RDKit          3D

 22 25  0  0  0  0  0  0  0  0999 V2000
   25.4250   23.5176   11.2537 O   0  0  0  0  0  0  0  0  0  0  0  0
   24.6239   24.0098   12.0323 C   0  0  0  0  0  0  0  0  0  0  0  0
   24.9543   25.0770   13.0331 C   0  0  0  0  0  0  0  0  0  0  0  0
   23.6621   25.2651   13.8421 C   0  0  2  0  0  0  0  0  0  0  0  0
   23.7090   24.6115   15.1747 N   0  0  0  0  0  0  0  0  0  0  0  0
   24.7394   25.1861   16.0650 C   0  0  0  0  0  0  0  0  0  0  0  0
   24.5949   24.7191   17.5263 C   0  0  0  0  0  0  0  0  0  0  0  0
   23.9045   23.3478   17.5482 C   0  0  0  0  0  0  0  0  0  0  0  0
   24.0209   22.6441   18.8186 N   0  0  0  0  0  0  0  0  0  0  0  0
   22.9249   22.3222   19.5497 N   0  0  0  0  0  0  0  0  0  0  0  0
   23.4238   21.6099   20.5637 C   0  0  0  0  0  0  0  0  0  0  0  0
   24.8271   21.4829   20.5145 C   0  0  0  0  0  0  0  0  0  0  0  0
   25.8148   20.8581   21.2960 C   0  0  0  0  0  0  0  0  0  0  0  0
   27.1520   20.9488   20.8929 C   0  0  0  0  0  0  0  0  0  0  0  0
   27.5062   21.6365   19.7357 C   0  0  0  0  0  0  0  0  0  0  0  0
   26.5353   22.2494   18.9409 C   0  0  0  0  0  0  0  0  0  0  0  0
   25.1985   22.1678   19.3621 C   0  0  0  0  0  0  0  0  0  0  0  0
   22.4685   23.5566   17.0262 C   0  0  0  0  0  0  0  0  0  0  0  0
   22.4231   24.5833   15.8795 C   0  0  0  0  0  0  0  0  0  0  0  0
   22.6458   24.6000   12.9059 C   0  0  0  0  0  0  0  0  0  0  0  0
   21.4464   24.8372   12.8724 O   0  0  0  0  0  0  0  0  0  0  0  0
   23.2991   23.7447   12.0785 N   0  0  0  0  0  0  0  0  0  0  0  0
  1  2  2  0
  2  3  1  0
  3  4  1  0
  4  5  1  1
  5  6  1  0
  6  7  1  0
  7  8  1  0
  8  9  1  0
  9 10  1  0
 10 11  2  0
 11 12  1  0
 12 13  2  0
 13 14  1  0
 14 15  2  0
 15 16  1  0
 16 17  2  0
  8 18  1  0
 18 19  1  0
  4 20  1  0
 20 21  2  0
 20 22  1  0
 22  2  1  0
 19  5  1  0
 17  9  1  0
 17 12  1  0
M  END
>  <ref_pdb>  (269) 
A4509a

>  <subsites>  (269) 
1 - Active Site,5 - A3181/A/202/1

>  <HIPPO Compound ID>  (269) 
54541

>  <energy_score>  (269) 
-34.15504

>  <fragmenstein_mode>  (269) 
expansion

>  <scratch_subdir>  (269) 
/opt/xchem-fragalysis-2/maxwin/BulkDock/SCRATCH/511230/C54664-P384

>  <smiles>  (269) 
O=C1C[C@H](N2CCC(n3ncc4ccccc43)CC2)C(=O)N1

>  <alias>  (269) 
C54664-P384

>  <ref_mols>  (269) 
A4509a,A3181b

>  <inspiration_score>  (269) 
None

>  <tags>  (269) 
BulkDock Fragalysis export,fragmenstein_placed,openbind_a71ev2a_c1_scaffolds,openbind_a71ev2a_c1_knitwork_pure

>  <fragmenstein_outcome>  (269) 
acceptable

>  <fragmenstein_error>  (269) 


>  <distance_score>  (269) 
0.683771

>  <inchikey>  (269) 
HGBPIRBOCLLQLU-UHFFFAOYSA-N

>  <name>  (269) 
C54664-P384

>  <HIPPO Pose ID>  (269) 
214807

>  <Energy>  (269) 
17.586854

>  <exports>  (269) 
['/opt/xchem-fragalysis-2/maxwin/BulkDock/OUTPUTS/openbind_a71ev2a_c1_knitwork_pure_165VWF8.sdf', '/opt/xchem-fragalysis-2/maxwin/BulkDock/OUTPUTS/openbind_a71ev2a_c1_knitwork_pure_1B07PTU.sdf', '/opt/xchem-fragalysis-2/maxwin/BulkDock/OUTPUTS/openbind_a71ev2a_c1_knitwork_pure_1B07UWE.sdf', '/opt/xchem-fragalysis-2/maxwin/openbind-hippo/a71ev2a/openbind_a71ev2a_c1_scaffold_products.sdf', '/opt/xchem-fragalysis-2/maxwin/openbind-hippo/a71ev2a/cycle_01/bulkdock/openbind_a71ev2a_c1_scaffold_products.sdf', '/opt/xchem-fragalysis-2/maxwin/openbind-hippo/a71ev2a/cycle_01/bulkdock/openbind_a71ev2a_c1_scaffolds.sdf']

>  <fragmenstein_runtime>  (269) 
1.637857

$$$$
C45615-P339
     RDKit          3D

 18 20  0  0  0  0  0  0  0  0999 V2000
    8.7076   18.5963   27.3637 C   0  0  0  0  0  0  0  0  0  0  0  0
    7.9024   17.3948   27.2022 N   0  0  0  0  0  0  0  0  0  0  0  0
    8.6631   16.1850   27.5107 C   0  0  0  0  0  0  0  0  0  0  0  0
    7.7017   15.0012   27.5922 C   0  0  0  0  0  0  0  0  0  0  0  0
    6.8528   14.8092   26.3235 C   0  0  0  0  0  0  0  0  0  0  0  0
    7.6071   14.0302   25.2746 C   0  0  0  0  0  0  0  0  0  0  0  0
    8.2922   14.5735   24.2950 N   0  0  0  0  0  0  0  0  0  0  0  0
    8.9910   13.6158   23.5929 C   0  0  0  0  0  0  0  0  0  0  0  0
    9.9570   14.0766   22.5460 C   0  0  2  0  0  0  0  0  0  0  0  0
   11.1605   14.7873   23.1933 C   0  0  0  0  0  0  0  0  0  0  0  0
   11.8723   15.7225   22.2188 C   0  0  0  0  0  0  0  0  0  0  0  0
   11.6354   15.3095   20.7732 C   0  0  0  0  0  0  0  0  0  0  0  0
   10.2231   15.4065   20.4266 N   0  0  0  0  0  0  0  0  0  0  0  0
    9.3048   14.9767   21.4841 C   0  0  0  0  0  0  0  0  0  0  0  0
    8.7673   12.3191   24.0117 C   0  0  0  0  0  0  0  0  0  0  0  0
    7.6732   12.3084   25.3287 S   0  0  0  0  0  0  0  0  0  0  0  0
    6.3204   16.1516   25.7931 C   0  0  0  0  0  0  0  0  0  0  0  0
    7.3384   17.2946   25.8471 C   0  0  0  0  0  0  0  0  0  0  0  0
  1  2  1  0
  2  3  1  0
  3  4  1  0
  4  5  1  0
  5  6  1  0
  6  7  2  0
  7  8  1  0
  9  8  1  1
  9 10  1  0
 10 11  1  0
 11 12  1  0
 12 13  1  0
 13 14  1  0
  8 15  2  0
 15 16  1  0
  5 17  1  0
 17 18  1  0
 18  2  1  0
 16  6  1  0
 14  9  1  0
M  END
>  <ref_pdb>  (270) 
A4237b

>  <subsites>  (270) 
1 - Active Site

>  <HIPPO Compound ID>  (270) 
69436

>  <energy_score>  (270) 
-83.547177

>  <fragmenstein_mode>  (270) 
expansion

>  <scratch_subdir>  (270) 
/opt/xchem-fragalysis-2/maxwin/BulkDock/SCRATCH/511230/C45615-P339

>  <smiles>  (270) 
CN1CCC(c2nc([C@@H]3CCCNC3)cs2)CC1

>  <alias>  (270) 
C45615-P339

>  <ref_mols>  (270) 
A4237b,A4320a

>  <inspiration_score>  (270) 
None

>  <tags>  (270) 
BulkDock Fragalysis export,fragmenstein_placed,openbind_a71ev2a_c1_scaffolds,openbind_a71ev2a_c1_knitwork_pure

>  <fragmenstein_outcome>  (270) 
acceptable

>  <fragmenstein_error>  (270) 


>  <distance_score>  (270) 
0.907268

>  <inchikey>  (270) 
YQYGMTNHNASFKA-UHFFFAOYSA-N

>  <name>  (270) 
C45615-P339

>  <HIPPO Pose ID>  (270) 
216456

>  <Energy>  (270) 
21.523036

>  <exports>  (270) 
['/opt/xchem-fragalysis-2/maxwin/BulkDock/OUTPUTS/openbind_a71ev2a_c1_knitwork_pure_165VWF8.sdf', '/opt/xchem-fragalysis-2/maxwin/BulkDock/OUTPUTS/openbind_a71ev2a_c1_knitwork_pure_1B07PTU.sdf', '/opt/xchem-fragalysis-2/maxwin/BulkDock/OUTPUTS/openbind_a71ev2a_c1_knitwork_pure_1B07UWE.sdf', '/opt/xchem-fragalysis-2/maxwin/openbind-hippo/a71ev2a/openbind_a71ev2a_c1_scaffold_products.sdf', '/opt/xchem-fragalysis-2/maxwin/openbind-hippo/a71ev2a/cycle_01/bulkdock/openbind_a71ev2a_c1_scaffold_products.sdf', '/opt/xchem-fragalysis-2/maxwin/openbind-hippo/a71ev2a/cycle_01/bulkdock/openbind_a71ev2a_c1_scaffolds.sdf']

>  <fragmenstein_runtime>  (270) 
6.519187

$$$$
C55223-P339
     RDKit          3D

 17 18  0  0  0  0  0  0  0  0999 V2000
   10.9654   14.4392   23.2226 O   0  0  0  0  0  0  0  0  0  0  0  0
    9.8660   14.3827   22.6770 C   0  0  0  0  0  0  0  0  0  0  0  0
    8.6366   13.7875   23.3134 C   0  0  0  0  0  0  0  0  0  0  0  0
    8.9899   13.0043   24.5757 C   0  0  0  0  0  0  0  0  0  0  0  0
    7.7871   12.7015   25.4407 C   0  0  0  0  0  0  0  0  0  0  0  0
    7.3403   11.3773   25.5536 C   0  0  0  0  0  0  0  0  0  0  0  0
    6.2356   11.0850   26.3448 C   0  0  0  0  0  0  0  0  0  0  0  0
    5.8162    9.8205   26.4499 F   0  0  0  0  0  0  0  0  0  0  0  0
    5.5543   12.0771   27.0288 C   0  0  0  0  0  0  0  0  0  0  0  0
    5.9934   13.3939   26.9309 C   0  0  0  0  0  0  0  0  0  0  0  0
    7.1144   13.7278   26.1495 C   0  0  0  0  0  0  0  0  0  0  0  0
    7.6249   15.0473   26.1134 N   0  0  0  0  0  0  0  0  0  0  0  0
    6.6139   16.0838   25.8321 C   0  0  0  0  0  0  0  0  0  0  0  0
    7.3101   17.4270   25.6219 C   0  0  0  0  0  0  0  0  0  0  0  0
    8.1761   17.7875   26.8268 C   0  0  0  0  0  0  0  0  0  0  0  0
    9.1642   16.6661   27.1326 C   0  0  0  0  0  0  0  0  0  0  0  0
    8.4431   15.3306   27.3071 C   0  0  0  0  0  0  0  0  0  0  0  0
  1  2  2  0
  2  3  1  0
  3  4  1  0
  4  5  1  0
  5  6  2  0
  6  7  1  0
  7  8  1  0
  7  9  2  0
  9 10  1  0
 10 11  2  0
 11 12  1  0
 12 13  1  0
 13 14  1  0
 14 15  1  0
 15 16  1  0
 16 17  1  0
 11  5  1  0
 17 12  1  0
M  END
>  <ref_pdb>  (271) 
A4237b

>  <subsites>  (271) 
1 - Active Site

>  <HIPPO Compound ID>  (271) 
46719

>  <energy_score>  (271) 
-42.865404

>  <fragmenstein_mode>  (271) 
expansion

>  <scratch_subdir>  (271) 
/opt/xchem-fragalysis-2/maxwin/BulkDock/SCRATCH/511230/C55223-P339

>  <smiles>  (271) 
O=CCCc1cc(F)ccc1N1CCCCC1

>  <alias>  (271) 
C55223-P339

>  <ref_mols>  (271) 
A4237b,A4320a

>  <inspiration_score>  (271) 
None

>  <tags>  (271) 
BulkDock Fragalysis export,fragmenstein_placed,openbind_a71ev2a_c1_scaffolds,openbind_a71ev2a_c1_knitwork_pure

>  <fragmenstein_outcome>  (271) 
acceptable

>  <fragmenstein_error>  (271) 


>  <distance_score>  (271) 
0.687849

>  <inchikey>  (271) 
SZOSSGYASKCMRR-UHFFFAOYSA-N

>  <name>  (271) 
C55223-P339

>  <HIPPO Pose ID>  (271) 
216470

>  <Energy>  (271) 
15.118869

>  <exports>  (271) 
['/opt/xchem-fragalysis-2/maxwin/BulkDock/OUTPUTS/openbind_a71ev2a_c1_knitwork_pure_165VWF8.sdf', '/opt/xchem-fragalysis-2/maxwin/BulkDock/OUTPUTS/openbind_a71ev2a_c1_knitwork_pure_1B07PTU.sdf', '/opt/xchem-fragalysis-2/maxwin/BulkDock/OUTPUTS/openbind_a71ev2a_c1_knitwork_pure_1B07UWE.sdf', '/opt/xchem-fragalysis-2/maxwin/openbind-hippo/a71ev2a/openbind_a71ev2a_c1_scaffold_products.sdf', '/opt/xchem-fragalysis-2/maxwin/openbind-hippo/a71ev2a/cycle_01/bulkdock/openbind_a71ev2a_c1_scaffold_products.sdf', '/opt/xchem-fragalysis-2/maxwin/openbind-hippo/a71ev2a/cycle_01/bulkdock/openbind_a71ev2a_c1_scaffolds.sdf']

>  <fragmenstein_runtime>  (271) 
9.059245

$$$$
C51875-P363
     RDKit          3D

 13 13  0  0  0  0  0  0  0  0999 V2000
    9.7297    9.2670   23.1631 C   0  0  0  0  0  0  0  0  0  0  0  0
    9.9486   10.6478   22.9800 O   0  0  0  0  0  0  0  0  0  0  0  0
    9.3936   11.4305   23.9566 C   0  0  0  0  0  0  0  0  0  0  0  0
    8.4464   10.8905   24.7596 N   0  0  0  0  0  0  0  0  0  0  0  0
    7.8204   11.7248   25.6095 C   0  0  0  0  0  0  0  0  0  0  0  0
    8.1038   13.0819   25.7246 C   0  0  0  0  0  0  0  0  0  0  0  0
    7.3717   13.9845   26.6940 C   0  0  2  0  0  0  0  0  0  0  0  0
    5.9921   13.4985   27.1408 C   0  0  0  0  0  0  0  0  0  0  0  0
    7.1943   15.3787   26.1364 C   0  0  0  0  0  0  0  0  0  0  0  0
    7.7667   16.3583   26.6061 O   0  0  0  0  0  0  0  0  0  0  0  0
    9.1431   13.5833   24.9229 C   0  0  0  0  0  0  0  0  0  0  0  0
    9.7792   12.7596   24.0045 C   0  0  0  0  0  0  0  0  0  0  0  0
   10.9839   13.4179   22.9727 Cl  0  0  0  0  0  0  0  0  0  0  0  0
  1  2  1  0
  2  3  1  0
  3  4  2  0
  4  5  1  0
  5  6  2  0
  6  7  1  0
  7  8  1  6
  7  9  1  0
  9 10  2  0
  6 11  1  0
 11 12  2  0
 12 13  1  0
 12  3  1  0
M  END
>  <ref_pdb>  (272) 
A4445a

>  <subsites>  (272) 
1 - Active Site

>  <HIPPO Compound ID>  (272) 
7530

>  <energy_score>  (272) 
-7.616727

>  <fragmenstein_mode>  (272) 
expansion

>  <scratch_subdir>  (272) 
/opt/xchem-fragalysis-2/maxwin/BulkDock/SCRATCH/512169/C51875-P363

>  <smiles>  (272) 
COc1ncc([C@H](C)C=O)cc1Cl

>  <alias>  (272) 
C51875-P363

>  <ref_mols>  (272) 
A4445a,A2629a

>  <inspiration_score>  (272) 
None

>  <tags>  (272) 
BulkDock Fragalysis export,fragmenstein_placed,openbind_a71ev2a_c1_scaffolds,openbind_a71ev2a_c1_knitwork_pure

>  <fragmenstein_outcome>  (272) 
acceptable

>  <fragmenstein_error>  (272) 


>  <distance_score>  (272) 
0.796426

>  <inchikey>  (272) 
KLDGENGYOLDCCH-UHFFFAOYSA-N

>  <name>  (272) 
C51875-P363

>  <HIPPO Pose ID>  (272) 
217787

>  <Energy>  (272) 
45.625941

>  <exports>  (272) 
['/opt/xchem-fragalysis-2/maxwin/BulkDock/OUTPUTS/openbind_a71ev2a_c1_knitwork_pure_165VWF8.sdf', '/opt/xchem-fragalysis-2/maxwin/BulkDock/OUTPUTS/openbind_a71ev2a_c1_knitwork_pure_1B07PTU.sdf', '/opt/xchem-fragalysis-2/maxwin/BulkDock/OUTPUTS/openbind_a71ev2a_c1_knitwork_pure_1B07UWE.sdf', '/opt/xchem-fragalysis-2/maxwin/openbind-hippo/a71ev2a/openbind_a71ev2a_c1_scaffold_products.sdf', '/opt/xchem-fragalysis-2/maxwin/openbind-hippo/a71ev2a/cycle_01/bulkdock/openbind_a71ev2a_c1_scaffold_products.sdf', '/opt/xchem-fragalysis-2/maxwin/openbind-hippo/a71ev2a/cycle_01/bulkdock/openbind_a71ev2a_c1_scaffolds.sdf']

>  <fragmenstein_runtime>  (272) 
0.75746

$$$$
C75223-P136
     RDKit          3D

 14 15  0  0  0  0  0  0  0  0999 V2000
   22.8134   11.5574   -4.9364 C   0  0  0  0  0  0  0  0  0  0  0  0
   22.0731   12.3600   -3.8839 C   0  0  2  0  0  0  0  0  0  0  0  0
   22.9953   13.0749   -2.9088 C   0  0  0  0  0  0  0  0  0  0  0  0
   22.1161   13.1683   -1.6765 C   0  0  2  0  0  0  0  0  0  0  0  0
   22.8891   13.4666   -0.3948 C   0  0  0  0  0  0  0  0  0  0  0  0
   21.9824   13.6007    0.7536 N   0  0  0  0  0  0  0  0  0  0  0  0
   22.7093   14.0780    1.9424 C   0  0  0  0  0  0  0  0  0  0  0  0
   22.9798   15.5423    1.8262 C   0  0  0  0  0  0  0  0  0  0  0  0
   22.0935   16.5952    1.8984 C   0  0  0  0  0  0  0  0  0  0  0  0
   22.7831   17.7519    1.7039 O   0  0  0  0  0  0  0  0  0  0  0  0
   24.0654   17.3353    1.5157 C   0  0  0  0  0  0  0  0  0  0  0  0
   24.2412   16.0346    1.5640 N   0  0  0  0  0  0  0  0  0  0  0  0
   21.4369   11.8121   -1.7083 C   0  0  0  0  0  0  0  0  0  0  0  0
   21.2461   11.4855   -3.0967 O   0  0  0  0  0  0  0  0  0  0  0  0
  2  1  1  6
  2  3  1  0
  3  4  1  0
  4  5  1  1
  5  6  1  0
  6  7  1  0
  7  8  1  0
  8  9  2  0
  9 10  1  0
 10 11  1  0
 11 12  2  0
  4 13  1  0
 13 14  1  0
 14  2  1  0
 12  8  1  0
M  END
>  <ref_pdb>  (273) 
A2846a

>  <subsites>  (273) 
1 - Active Site,6 - A0486/A/147/1

>  <HIPPO Compound ID>  (273) 
9170

>  <energy_score>  (273) 
-38.84076

>  <fragmenstein_mode>  (273) 
expansion

>  <scratch_subdir>  (273) 
/opt/xchem-fragalysis-2/maxwin/BulkDock/SCRATCH/512169/C75223-P136

>  <smiles>  (273) 
C[C@@H]1C[C@H](CNCc2cocn2)CO1

>  <alias>  (273) 
C75223-P136

>  <ref_mols>  (273) 
A2846a,A0608a

>  <inspiration_score>  (273) 
None

>  <tags>  (273) 
BulkDock Fragalysis export,fragmenstein_placed,openbind_a71ev2a_c1_scaffolds,openbind_a71ev2a_c1_knitwork_pure

>  <fragmenstein_outcome>  (273) 
acceptable

>  <fragmenstein_error>  (273) 


>  <distance_score>  (273) 
0.940939

>  <inchikey>  (273) 
UQSQEAQGOCUNCL-UHFFFAOYSA-N

>  <name>  (273) 
C75223-P136

>  <HIPPO Pose ID>  (273) 
218145

>  <Energy>  (273) 
26.749319

>  <exports>  (273) 
['/opt/xchem-fragalysis-2/maxwin/BulkDock/OUTPUTS/openbind_a71ev2a_c1_knitwork_pure_165VWF8.sdf', '/opt/xchem-fragalysis-2/maxwin/BulkDock/OUTPUTS/openbind_a71ev2a_c1_knitwork_pure_1B07PTU.sdf', '/opt/xchem-fragalysis-2/maxwin/BulkDock/OUTPUTS/openbind_a71ev2a_c1_knitwork_pure_1B07UWE.sdf', '/opt/xchem-fragalysis-2/maxwin/openbind-hippo/a71ev2a/openbind_a71ev2a_c1_scaffold_products.sdf', '/opt/xchem-fragalysis-2/maxwin/openbind-hippo/a71ev2a/cycle_01/bulkdock/openbind_a71ev2a_c1_scaffold_products.sdf', '/opt/xchem-fragalysis-2/maxwin/openbind-hippo/a71ev2a/cycle_01/bulkdock/openbind_a71ev2a_c1_scaffolds.sdf']

>  <fragmenstein_runtime>  (273) 
1.244226

$$$$
C55392-P183
     RDKit          3D

 17 17  0  0  0  0  0  0  0  0999 V2000
   11.2504   14.2325   22.4574 C   0  0  0  0  0  0  0  0  0  0  0  0
    9.8980   13.6730   22.8888 C   0  0  0  0  0  0  0  0  0  0  0  0
   10.0575   12.6349   23.9889 C   0  0  0  0  0  0  0  0  0  0  0  0
    8.8131   11.9756   24.5324 C   0  0  0  0  0  0  0  0  0  0  0  0
    8.7123   10.6429   24.4781 N   0  0  0  0  0  0  0  0  0  0  0  0
    7.6447   10.3485   25.2237 N   0  0  0  0  0  0  0  0  0  0  0  0
    6.9979   11.4244   25.7721 C   0  0  0  0  0  0  0  0  0  0  0  0
    5.7796   11.4125   26.5955 C   0  0  0  0  0  0  0  0  0  0  0  0
    5.2066   12.4183   26.7172 O   0  0  0  0  0  0  0  0  0  0  0  0
    5.4942   10.0209   27.1974 N   0  0  0  0  0  0  0  0  0  0  0  0
    4.3877    9.5553   28.0002 C   0  0  0  0  0  0  0  0  0  0  0  0
    4.8070    8.9134   29.2980 C   0  0  0  0  0  0  0  0  0  0  0  0
    7.7369   12.5095   25.2909 C   0  0  0  0  0  0  0  0  0  0  0  0
    7.5223   14.1898   25.5456 S   0  0  0  0  0  0  0  0  0  0  0  0
    6.5053   14.5678   26.8173 N   0  0  0  0  0  0  0  0  0  0  0  0
    6.8886   14.6652   24.3415 O   0  0  0  0  0  0  0  0  0  0  0  0
    8.8324   14.6537   25.9515 O   0  0  0  0  0  0  0  0  0  0  0  0
  1  2  1  0
  2  3  1  0
  3  4  1  0
  4  5  2  0
  5  6  1  0
  6  7  1  0
  7  8  1  0
  8  9  2  0
  8 10  1  0
 10 11  1  0
 11 12  1  0
  7 13  2  0
 13 14  1  0
 14 15  1  0
 14 16  2  0
 14 17  2  0
 13  4  1  0
M  END
>  <ref_pdb>  (274) 
A3436a

>  <subsites>  (274) 
1 - Active Site

>  <HIPPO Compound ID>  (274) 
72020

>  <energy_score>  (274) 
-25.581602

>  <fragmenstein_mode>  (274) 
expansion

>  <scratch_subdir>  (274) 
/opt/xchem-fragalysis-2/maxwin/BulkDock/SCRATCH/512169/C55392-P183

>  <smiles>  (274) 
CCCc1n[nH]c(C(=O)NCC)c1S(N)(=O)=O

>  <alias>  (274) 
C55392-P183

>  <ref_mols>  (274) 
A0556a,A3436a

>  <inspiration_score>  (274) 
None

>  <tags>  (274) 
BulkDock Fragalysis export,fragmenstein_placed,openbind_a71ev2a_c1_scaffolds,openbind_a71ev2a_c1_knitwork_pure

>  <fragmenstein_outcome>  (274) 
acceptable

>  <fragmenstein_error>  (274) 


>  <distance_score>  (274) 
0.937397

>  <inchikey>  (274) 
CPYSPBMOERNONI-UHFFFAOYSA-N

>  <name>  (274) 
C55392-P183

>  <HIPPO Pose ID>  (274) 
220163

>  <Energy>  (274) 
-111.718822

>  <exports>  (274) 
['/opt/xchem-fragalysis-2/maxwin/BulkDock/OUTPUTS/openbind_a71ev2a_c1_knitwork_pure_165VWF8.sdf', '/opt/xchem-fragalysis-2/maxwin/BulkDock/OUTPUTS/openbind_a71ev2a_c1_knitwork_pure_1B07PTU.sdf', '/opt/xchem-fragalysis-2/maxwin/BulkDock/OUTPUTS/openbind_a71ev2a_c1_knitwork_pure_1B07UWE.sdf', '/opt/xchem-fragalysis-2/maxwin/openbind-hippo/a71ev2a/openbind_a71ev2a_c1_scaffold_products.sdf', '/opt/xchem-fragalysis-2/maxwin/openbind-hippo/a71ev2a/cycle_01/bulkdock/openbind_a71ev2a_c1_scaffold_products.sdf', '/opt/xchem-fragalysis-2/maxwin/openbind-hippo/a71ev2a/cycle_01/bulkdock/openbind_a71ev2a_c1_scaffolds.sdf']

>  <fragmenstein_runtime>  (274) 
2.035669

$$$$
C48157-P405
     RDKit          3D

 11 11  0  0  0  0  0  0  0  0999 V2000
    8.2450   14.9673   25.4861 C   0  0  0  0  0  0  0  0  0  0  0  0
    7.5931   13.9708   24.5450 C   0  0  1  0  0  0  0  0  0  0  0  0
    7.9443   14.2227   23.0897 C   0  0  0  0  0  0  0  0  0  0  0  0
    7.4838   13.5437   22.1713 O   0  0  0  0  0  0  0  0  0  0  0  0
    7.8531   12.5432   24.9017 C   0  0  0  0  0  0  0  0  0  0  0  0
    6.9782   11.6350   25.5306 C   0  0  0  0  0  0  0  0  0  0  0  0
    5.3953   12.1708   26.3934 Br  0  0  0  0  0  0  0  0  0  0  0  0
    7.4389   10.3839   25.5685 N   0  0  0  0  0  0  0  0  0  0  0  0
    8.6827   10.5028   25.0536 N   0  0  0  0  0  0  0  0  0  0  0  0
    8.9993   11.7953   24.7570 C   0  0  0  0  0  0  0  0  0  0  0  0
   10.7155   12.4647   24.3409 Br  0  0  0  0  0  0  0  0  0  0  0  0
  2  1  1  1
  2  3  1  0
  3  4  2  0
  2  5  1  0
  5  6  1  0
  6  7  1  0
  6  8  2  0
  8  9  1  0
  9 10  1  0
 10 11  1  0
 10  5  2  0
M  END
>  <ref_pdb>  (275) 
A4570a

>  <subsites>  (275) 
1 - Active Site

>  <HIPPO Compound ID>  (275) 
76437

>  <energy_score>  (275) 
-12.406749

>  <fragmenstein_mode>  (275) 
expansion

>  <scratch_subdir>  (275) 
/opt/xchem-fragalysis-2/maxwin/BulkDock/SCRATCH/512169/C48157-P405

>  <smiles>  (275) 
C[C@@H](C=O)c1c(Br)n[nH]c1Br

>  <alias>  (275) 
C48157-P405

>  <ref_mols>  (275) 
A0556a,A4570a

>  <inspiration_score>  (275) 
None

>  <tags>  (275) 
BulkDock Fragalysis export,fragmenstein_placed,openbind_a71ev2a_c1_scaffolds,openbind_a71ev2a_c1_knitwork_pure

>  <fragmenstein_outcome>  (275) 
acceptable

>  <fragmenstein_error>  (275) 


>  <distance_score>  (275) 
0.79667

>  <inchikey>  (275) 
JGPKGUGWSKQTMA-UHFFFAOYSA-N

>  <name>  (275) 
C48157-P405

>  <HIPPO Pose ID>  (275) 
220515

>  <Energy>  (275) 
16.191525

>  <exports>  (275) 
['/opt/xchem-fragalysis-2/maxwin/BulkDock/OUTPUTS/openbind_a71ev2a_c1_knitwork_pure_165VWF8.sdf', '/opt/xchem-fragalysis-2/maxwin/BulkDock/OUTPUTS/openbind_a71ev2a_c1_knitwork_pure_1B07PTU.sdf', '/opt/xchem-fragalysis-2/maxwin/BulkDock/OUTPUTS/openbind_a71ev2a_c1_knitwork_pure_1B07UWE.sdf', '/opt/xchem-fragalysis-2/maxwin/openbind-hippo/a71ev2a/openbind_a71ev2a_c1_scaffold_products.sdf', '/opt/xchem-fragalysis-2/maxwin/openbind-hippo/a71ev2a/cycle_01/bulkdock/openbind_a71ev2a_c1_scaffold_products.sdf', '/opt/xchem-fragalysis-2/maxwin/openbind-hippo/a71ev2a/cycle_01/bulkdock/openbind_a71ev2a_c1_scaffolds.sdf']

>  <fragmenstein_runtime>  (275) 
0.590726

$$$$
C9559-P391
     RDKit          3D

  9  9  0  0  0  0  0  0  0  0999 V2000
    7.1649   11.4560   25.1406 O   0  0  0  0  0  0  0  0  0  0  0  0
    7.2055   12.6723   24.9843 C   0  0  0  0  0  0  0  0  0  0  0  0
    8.4722   13.3892   24.6393 C   0  0  0  0  0  0  0  0  0  0  0  0
    8.2214   14.3879   23.5253 C   0  0  0  0  0  0  0  0  0  0  0  0
    9.4639   14.8179   22.9151 N   0  0  0  0  0  0  0  0  0  0  0  0
   10.5293   15.4094   23.5323 C   0  0  0  0  0  0  0  0  0  0  0  0
   11.5235   15.4673   22.5835 C   0  0  0  0  0  0  0  0  0  0  0  0
   10.9426   14.9319   21.4204 C   0  0  0  0  0  0  0  0  0  0  0  0
    9.6788   14.5497   21.6210 N   0  0  0  0  0  0  0  0  0  0  0  0
  1  2  2  0
  2  3  1  0
  3  4  1  0
  4  5  1  0
  5  6  1  0
  6  7  2  0
  7  8  1  0
  8  9  2  0
  9  5  1  0
M  END
>  <ref_pdb>  (276) 
A4526a

>  <subsites>  (276) 
1 - Active Site

>  <HIPPO Compound ID>  (276) 
9559

>  <energy_score>  (276) 
-13.047533

>  <fragmenstein_mode>  (276) 
expansion

>  <scratch_subdir>  (276) 
/opt/xchem-fragalysis-2/maxwin/BulkDock/SCRATCH/512169/C9559-P391

>  <smiles>  (276) 
O=CCCn1cccn1

>  <alias>  (276) 
C9559-P391

>  <ref_mols>  (276) 
A0556a,A4526a

>  <inspiration_score>  (276) 
None

>  <tags>  (276) 
BulkDock Fragalysis export,fragmenstein_placed,openbind_a71ev2a_c1_scaffolds,openbind_a71ev2a_c1_knitwork_pure

>  <fragmenstein_outcome>  (276) 
acceptable

>  <fragmenstein_error>  (276) 


>  <distance_score>  (276) 
0.824928

>  <inchikey>  (276) 
BERWHPCSSUZEII-UHFFFAOYSA-N

>  <name>  (276) 
C9559-P391

>  <HIPPO Pose ID>  (276) 
223016

>  <Energy>  (276) 
-4.121161

>  <exports>  (276) 
['/opt/xchem-fragalysis-2/maxwin/BulkDock/OUTPUTS/openbind_a71ev2a_c1_knitwork_pure_165VWF8.sdf', '/opt/xchem-fragalysis-2/maxwin/BulkDock/OUTPUTS/openbind_a71ev2a_c1_knitwork_pure_1B07PTU.sdf', '/opt/xchem-fragalysis-2/maxwin/BulkDock/OUTPUTS/openbind_a71ev2a_c1_knitwork_pure_1B07UWE.sdf', '/opt/xchem-fragalysis-2/maxwin/openbind-hippo/a71ev2a/openbind_a71ev2a_c1_scaffold_products.sdf', '/opt/xchem-fragalysis-2/maxwin/openbind-hippo/a71ev2a/cycle_01/bulkdock/openbind_a71ev2a_c1_scaffold_products.sdf', '/opt/xchem-fragalysis-2/maxwin/openbind-hippo/a71ev2a/cycle_01/bulkdock/openbind_a71ev2a_c1_scaffolds.sdf']

>  <fragmenstein_runtime>  (276) 
0.902066

$$$$
C65388-P220
     RDKit          3D

 20 21  0  0  0  0  0  0  0  0999 V2000
   10.4812   13.9027   25.3158 O   0  0  0  0  0  0  0  0  0  0  0  0
   10.3243   13.3663   24.2945 C   0  0  0  0  0  0  0  0  0  0  0  0
   11.0826   13.5090   22.9703 N   0  0  0  0  0  0  0  0  0  0  0  0
   12.1306   14.4051   22.5914 C   0  0  0  0  0  0  0  0  0  0  0  0
   12.3194   14.5755   21.1005 C   0  0  0  0  0  0  0  0  0  0  0  0
   11.2031   15.1987   20.4455 N   0  0  0  0  0  0  0  0  0  0  0  0
   10.8496   15.0383   19.1511 C   0  0  0  0  0  0  0  0  0  0  0  0
    9.6658   15.7135   19.0264 C   0  0  0  0  0  0  0  0  0  0  0  0
    9.4688   16.3685   20.2475 C   0  0  0  0  0  0  0  0  0  0  0  0
   10.3986   16.0184   21.1249 N   0  0  0  0  0  0  0  0  0  0  0  0
    9.2958   12.2902   24.2433 C   0  0  0  0  0  0  0  0  0  0  0  0
    9.4651   11.1691   23.4473 C   0  0  0  0  0  0  0  0  0  0  0  0
    8.5548   10.1560   23.5656 C   0  0  0  0  0  0  0  0  0  0  0  0
    7.5387   10.1570   24.4460 N   0  0  0  0  0  0  0  0  0  0  0  0
    7.3757   11.2436   25.2449 C   0  0  0  0  0  0  0  0  0  0  0  0
    6.2911   11.2394   26.3141 C   0  0  0  0  0  0  0  0  0  0  0  0
    6.2963   12.3884   27.0584 F   0  0  0  0  0  0  0  0  0  0  0  0
    5.0247   11.1408   25.8459 F   0  0  0  0  0  0  0  0  0  0  0  0
    6.4287   10.2521   27.2447 F   0  0  0  0  0  0  0  0  0  0  0  0
    8.2273   12.3398   25.1410 C   0  0  0  0  0  0  0  0  0  0  0  0
  1  2  2  0
  2  3  1  0
  3  4  1  0
  4  5  1  0
  5  6  1  0
  6  7  1  0
  7  8  2  0
  8  9  1  0
  9 10  2  0
  2 11  1  0
 11 12  2  0
 12 13  1  0
 13 14  2  0
 14 15  1  0
 15 16  1  0
 16 17  1  0
 16 18  1  0
 16 19  1  0
 15 20  2  0
 10  6  1  0
 20 11  1  0
M  END
>  <ref_pdb>  (277) 
A3568a

>  <subsites>  (277) 
1 - Active Site

>  <HIPPO Compound ID>  (277) 
45718

>  <energy_score>  (277) 
-3.993544

>  <fragmenstein_mode>  (277) 
expansion

>  <scratch_subdir>  (277) 
/opt/xchem-fragalysis-2/maxwin/BulkDock/SCRATCH/512169/C65388-P220

>  <smiles>  (277) 
O=C(NCCn1cccn1)c1ccnc(C(F)(F)F)c1

>  <alias>  (277) 
C65388-P220

>  <ref_mols>  (277) 
A3568a,A0556a

>  <inspiration_score>  (277) 
None

>  <tags>  (277) 
BulkDock Fragalysis export,fragmenstein_placed,openbind_a71ev2a_c1_scaffolds,openbind_a71ev2a_c1_knitwork_pure

>  <fragmenstein_outcome>  (277) 
acceptable

>  <fragmenstein_error>  (277) 


>  <distance_score>  (277) 
0.803491

>  <inchikey>  (277) 
BRPFDWXEIDBRLV-UHFFFAOYSA-N

>  <name>  (277) 
C65388-P220

>  <HIPPO Pose ID>  (277) 
223425

>  <Energy>  (277) 
90.361409

>  <exports>  (277) 
['/opt/xchem-fragalysis-2/maxwin/BulkDock/OUTPUTS/openbind_a71ev2a_c1_knitwork_pure_165VWF8.sdf', '/opt/xchem-fragalysis-2/maxwin/BulkDock/OUTPUTS/openbind_a71ev2a_c1_knitwork_pure_1B07PTU.sdf', '/opt/xchem-fragalysis-2/maxwin/BulkDock/OUTPUTS/openbind_a71ev2a_c1_knitwork_pure_1B07UWE.sdf', '/opt/xchem-fragalysis-2/maxwin/openbind-hippo/a71ev2a/openbind_a71ev2a_c1_scaffold_products.sdf', '/opt/xchem-fragalysis-2/maxwin/openbind-hippo/a71ev2a/cycle_01/bulkdock/openbind_a71ev2a_c1_scaffold_products.sdf', '/opt/xchem-fragalysis-2/maxwin/openbind-hippo/a71ev2a/cycle_01/bulkdock/openbind_a71ev2a_c1_scaffolds.sdf']

>  <fragmenstein_runtime>  (277) 
10.512672

$$$$
C50814-P220
     RDKit          3D

 17 18  0  0  0  0  0  0  0  0999 V2000
    9.4218    9.1538   22.5854 N   0  0  0  0  0  0  0  0  0  0  0  0
    8.9674   10.1746   23.4041 C   0  0  0  0  0  0  0  0  0  0  0  0
    9.7586   11.2764   23.5145 C   0  0  0  0  0  0  0  0  0  0  0  0
    9.3409   12.3806   24.2397 C   0  0  0  0  0  0  0  0  0  0  0  0
   10.2915   13.5191   24.2901 C   0  0  0  0  0  0  0  0  0  0  0  0
   10.4858   14.0675   25.2994 O   0  0  0  0  0  0  0  0  0  0  0  0
   10.9526   13.7022   22.9107 N   0  0  0  0  0  0  0  0  0  0  0  0
   12.0484   14.5254   22.5088 C   0  0  0  0  0  0  0  0  0  0  0  0
   12.1753   14.5860   20.9948 C   0  0  0  0  0  0  0  0  0  0  0  0
   11.0449   15.2707   20.3331 C   0  0  0  0  0  0  0  0  0  0  0  0
   10.7934   15.3904   18.9549 C   0  0  0  0  0  0  0  0  0  0  0  0
    9.7242   16.1472   18.7132 N   0  0  0  0  0  0  0  0  0  0  0  0
    9.4153   16.6580   19.9082 N   0  0  0  0  0  0  0  0  0  0  0  0
   10.0249   15.9881   20.9098 C   0  0  0  0  0  0  0  0  0  0  0  0
    8.1568   12.3170   24.9485 C   0  0  0  0  0  0  0  0  0  0  0  0
    7.4396   11.1363   24.8424 C   0  0  0  0  0  0  0  0  0  0  0  0
    7.8213   10.0738   24.0839 N   0  0  0  0  0  0  0  0  0  0  0  0
  1  2  1  0
  2  3  2  0
  3  4  1  0
  4  5  1  0
  5  6  2  0
  5  7  1  0
  7  8  1  0
  8  9  1  0
  9 10  1  0
 10 11  1  0
 11 12  2  0
 12 13  1  0
 13 14  1  0
  4 15  2  0
 15 16  1  0
 16 17  2  0
 17  2  1  0
 14 10  2  0
M  END
>  <ref_pdb>  (278) 
A3568a

>  <subsites>  (278) 
1 - Active Site

>  <HIPPO Compound ID>  (278) 
50994

>  <energy_score>  (278) 
-17.571529

>  <fragmenstein_mode>  (278) 
expansion

>  <scratch_subdir>  (278) 
/opt/xchem-fragalysis-2/maxwin/BulkDock/SCRATCH/512169/C50814-P220

>  <smiles>  (278) 
Nc1cc(C(=O)NCCc2cn[nH]c2)ccn1

>  <alias>  (278) 
C50814-P220

>  <ref_mols>  (278) 
A3568a,A0556a

>  <inspiration_score>  (278) 
None

>  <tags>  (278) 
BulkDock Fragalysis export,fragmenstein_placed,openbind_a71ev2a_c1_scaffolds,openbind_a71ev2a_c1_knitwork_pure

>  <fragmenstein_outcome>  (278) 
acceptable

>  <fragmenstein_error>  (278) 


>  <distance_score>  (278) 
0.727051

>  <inchikey>  (278) 
WQRDHQBSZVIGIO-UHFFFAOYSA-N

>  <name>  (278) 
C50814-P220

>  <HIPPO Pose ID>  (278) 
223459

>  <Energy>  (278) 
-18.208899

>  <exports>  (278) 
['/opt/xchem-fragalysis-2/maxwin/BulkDock/OUTPUTS/openbind_a71ev2a_c1_knitwork_pure_165VWF8.sdf', '/opt/xchem-fragalysis-2/maxwin/BulkDock/OUTPUTS/openbind_a71ev2a_c1_knitwork_pure_1B07PTU.sdf', '/opt/xchem-fragalysis-2/maxwin/BulkDock/OUTPUTS/openbind_a71ev2a_c1_knitwork_pure_1B07UWE.sdf', '/opt/xchem-fragalysis-2/maxwin/openbind-hippo/a71ev2a/openbind_a71ev2a_c1_scaffold_products.sdf', '/opt/xchem-fragalysis-2/maxwin/openbind-hippo/a71ev2a/cycle_01/bulkdock/openbind_a71ev2a_c1_scaffold_products.sdf', '/opt/xchem-fragalysis-2/maxwin/openbind-hippo/a71ev2a/cycle_01/bulkdock/openbind_a71ev2a_c1_scaffolds.sdf']

>  <fragmenstein_runtime>  (278) 
5.046253

$$$$
C16362-P220
     RDKit          3D

 20 21  0  0  0  0  0  0  0  0999 V2000
   10.4128   13.9632   25.3629 O   0  0  0  0  0  0  0  0  0  0  0  0
   10.2662   13.4106   24.3497 C   0  0  0  0  0  0  0  0  0  0  0  0
   10.9873   13.5837   23.0123 N   0  0  0  0  0  0  0  0  0  0  0  0
   12.1025   14.4031   22.6579 C   0  0  0  0  0  0  0  0  0  0  0  0
   12.3144   14.5503   21.1664 C   0  0  0  0  0  0  0  0  0  0  0  0
   11.1867   15.1812   20.4614 C   0  0  0  0  0  0  0  0  0  0  0  0
   10.8736   15.0597   19.1045 C   0  0  0  0  0  0  0  0  0  0  0  0
    9.6838   15.7198   18.9911 C   0  0  0  0  0  0  0  0  0  0  0  0
    9.4655   16.3561   20.1703 N   0  0  0  0  0  0  0  0  0  0  0  0
   10.3179   15.9587   21.1090 N   0  0  0  0  0  0  0  0  0  0  0  0
    9.2694   12.3086   24.2953 C   0  0  0  0  0  0  0  0  0  0  0  0
    9.4661   11.2027   23.4830 C   0  0  0  0  0  0  0  0  0  0  0  0
    8.5773   10.1687   23.5860 C   0  0  0  0  0  0  0  0  0  0  0  0
    7.5551   10.1432   24.4611 N   0  0  0  0  0  0  0  0  0  0  0  0
    7.3669   11.2189   25.2710 C   0  0  0  0  0  0  0  0  0  0  0  0
    6.2730   11.1945   26.3300 C   0  0  0  0  0  0  0  0  0  0  0  0
    6.2197   12.3626   27.0428 F   0  0  0  0  0  0  0  0  0  0  0  0
    5.0182   11.0297   25.8528 F   0  0  0  0  0  0  0  0  0  0  0  0
    6.4423   10.2400   27.2883 F   0  0  0  0  0  0  0  0  0  0  0  0
    8.1989   12.3298   25.1877 C   0  0  0  0  0  0  0  0  0  0  0  0
  1  2  2  0
  2  3  1  0
  3  4  1  0
  4  5  1  0
  5  6  1  0
  6  7  1  0
  7  8  2  0
  8  9  1  0
  9 10  1  0
  2 11  1  0
 11 12  2  0
 12 13  1  0
 13 14  2  0
 14 15  1  0
 15 16  1  0
 16 17  1  0
 16 18  1  0
 16 19  1  0
 15 20  2  0
 10  6  2  0
 20 11  1  0
M  END
>  <ref_pdb>  (279) 
A3568a

>  <subsites>  (279) 
1 - Active Site

>  <HIPPO Compound ID>  (279) 
55674

>  <energy_score>  (279) 
-32.183412

>  <fragmenstein_mode>  (279) 
expansion

>  <scratch_subdir>  (279) 
/opt/xchem-fragalysis-2/maxwin/BulkDock/SCRATCH/512169/C16362-P220

>  <smiles>  (279) 
O=C(NCCc1cc[nH]n1)c1ccnc(C(F)(F)F)c1

>  <alias>  (279) 
C16362-P220

>  <ref_mols>  (279) 
A3568a,A0556a

>  <inspiration_score>  (279) 
None

>  <tags>  (279) 
BulkDock Fragalysis export,fragmenstein_placed,openbind_a71ev2a_c1_scaffolds,openbind_a71ev2a_c1_knitwork_pure

>  <fragmenstein_outcome>  (279) 
acceptable

>  <fragmenstein_error>  (279) 


>  <distance_score>  (279) 
0.80787

>  <inchikey>  (279) 
OGJPIWQWEMAAMH-UHFFFAOYSA-N

>  <name>  (279) 
C16362-P220

>  <HIPPO Pose ID>  (279) 
223468

>  <Energy>  (279) 
89.000833

>  <exports>  (279) 
['/opt/xchem-fragalysis-2/maxwin/BulkDock/OUTPUTS/openbind_a71ev2a_c1_knitwork_pure_165VWF8.sdf', '/opt/xchem-fragalysis-2/maxwin/BulkDock/OUTPUTS/openbind_a71ev2a_c1_knitwork_pure_1B07PTU.sdf', '/opt/xchem-fragalysis-2/maxwin/BulkDock/OUTPUTS/openbind_a71ev2a_c1_knitwork_pure_1B07UWE.sdf', '/opt/xchem-fragalysis-2/maxwin/openbind-hippo/a71ev2a/openbind_a71ev2a_c1_scaffold_products.sdf', '/opt/xchem-fragalysis-2/maxwin/openbind-hippo/a71ev2a/cycle_01/bulkdock/openbind_a71ev2a_c1_scaffold_products.sdf', '/opt/xchem-fragalysis-2/maxwin/openbind-hippo/a71ev2a/cycle_01/bulkdock/openbind_a71ev2a_c1_scaffolds.sdf']

>  <fragmenstein_runtime>  (279) 
5.403752

$$$$
C46023-P225
     RDKit          3D

 19 21  0  0  0  0  0  0  0  0999 V2000
   12.0529   15.2114   20.1993 C   0  0  0  0  0  0  0  0  0  0  0  0
   11.4466   16.0488   21.3204 C   0  0  0  0  0  0  0  0  0  0  0  0
   11.7425   15.4844   22.7097 C   0  0  0  0  0  0  0  0  0  0  0  0
   10.9496   14.2171   23.0011 C   0  0  0  0  0  0  0  0  0  0  0  0
    9.5084   14.4650   22.8301 N   0  0  0  0  0  0  0  0  0  0  0  0
    8.7269   13.2805   23.1981 C   0  0  0  0  0  0  0  0  0  0  0  0
    8.5685   13.1926   24.7049 C   0  0  0  0  0  0  0  0  0  0  0  0
    9.2361   13.8077   25.5340 O   0  0  0  0  0  0  0  0  0  0  0  0
    7.5399   12.2555   25.1967 C   0  0  0  0  0  0  0  0  0  0  0  0
    7.6043   10.8994   24.8402 C   0  0  0  0  0  0  0  0  0  0  0  0
    6.7895    9.9771   25.4963 C   0  0  0  0  0  0  0  0  0  0  0  0
    5.9299   10.4249   26.4844 C   0  0  0  0  0  0  0  0  0  0  0  0
    5.8399   11.7801   26.7924 C   0  0  0  0  0  0  0  0  0  0  0  0
    6.6273   12.7173   26.1514 C   0  0  0  0  0  0  0  0  0  0  0  0
    4.9364   11.9680   27.9650 C   0  0  0  0  0  0  0  0  0  0  0  0
    4.3807   10.5402   28.1484 C   0  0  0  0  0  0  0  0  0  0  0  0
    5.2737    9.6266   27.4362 N   0  0  0  0  0  0  0  0  0  0  0  0
    9.2065   14.8878   21.4580 C   0  0  0  0  0  0  0  0  0  0  0  0
    9.9386   16.1820   21.1199 C   0  0  0  0  0  0  0  0  0  0  0  0
  1  2  1  0
  2  3  1  0
  3  4  1  0
  4  5  1  0
  5  6  1  0
  6  7  1  0
  7  8  2  0
  7  9  1  0
  9 10  2  0
 10 11  1  0
 11 12  2  0
 12 13  1  0
 13 14  2  0
 13 15  1  0
 15 16  1  0
 16 17  1  0
  5 18  1  0
 18 19  1  0
 19  2  1  0
 14  9  1  0
 17 12  1  0
M  END
>  <ref_pdb>  (280) 
A3858a

>  <subsites>  (280) 
1 - Active Site

>  <HIPPO Compound ID>  (280) 
76407

>  <energy_score>  (280) 
-36.595119

>  <fragmenstein_mode>  (280) 
expansion

>  <scratch_subdir>  (280) 
/opt/xchem-fragalysis-2/maxwin/BulkDock/SCRATCH/512169/C46023-P225

>  <smiles>  (280) 
CC1CCN(CC(=O)c2ccc3c(c2)CCN3)CC1

>  <alias>  (280) 
C46023-P225

>  <ref_mols>  (280) 
A3858a,A1778a

>  <inspiration_score>  (280) 
None

>  <tags>  (280) 
BulkDock Fragalysis export,fragmenstein_placed,openbind_a71ev2a_c1_scaffolds,openbind_a71ev2a_c1_knitwork_pure

>  <fragmenstein_outcome>  (280) 
acceptable

>  <fragmenstein_error>  (280) 


>  <distance_score>  (280) 
0.940791

>  <inchikey>  (280) 
ROHRNSVGYBRSRF-UHFFFAOYSA-N

>  <name>  (280) 
C46023-P225

>  <HIPPO Pose ID>  (280) 
224440

>  <Energy>  (280) 
85.815056

>  <exports>  (280) 
['/opt/xchem-fragalysis-2/maxwin/BulkDock/OUTPUTS/openbind_a71ev2a_c1_knitwork_pure_165VWF8.sdf', '/opt/xchem-fragalysis-2/maxwin/BulkDock/OUTPUTS/openbind_a71ev2a_c1_knitwork_pure_1B07PTU.sdf', '/opt/xchem-fragalysis-2/maxwin/BulkDock/OUTPUTS/openbind_a71ev2a_c1_knitwork_pure_1B07UWE.sdf', '/opt/xchem-fragalysis-2/maxwin/openbind-hippo/a71ev2a/openbind_a71ev2a_c1_scaffold_products.sdf', '/opt/xchem-fragalysis-2/maxwin/openbind-hippo/a71ev2a/cycle_01/bulkdock/openbind_a71ev2a_c1_scaffold_products.sdf', '/opt/xchem-fragalysis-2/maxwin/openbind-hippo/a71ev2a/cycle_01/bulkdock/openbind_a71ev2a_c1_scaffolds.sdf']

>  <fragmenstein_runtime>  (280) 
5.609608

$$$$
C46024-P225
     RDKit          3D

 19 21  0  0  0  0  0  0  0  0999 V2000
   10.4689   15.8605   19.3104 C   0  0  0  0  0  0  0  0  0  0  0  0
   10.4672   15.8606   20.8389 C   0  0  2  0  0  0  0  0  0  0  0  0
   11.8980   15.7321   21.3637 C   0  0  0  0  0  0  0  0  0  0  0  0
   11.8973   15.4935   22.8624 C   0  0  0  0  0  0  0  0  0  0  0  0
   11.0542   14.2786   23.2100 C   0  0  0  0  0  0  0  0  0  0  0  0
    9.6560   14.5074   22.8101 N   0  0  0  0  0  0  0  0  0  0  0  0
    8.8136   13.3562   23.1879 C   0  0  0  0  0  0  0  0  0  0  0  0
    8.5601   13.3016   24.6864 C   0  0  0  0  0  0  0  0  0  0  0  0
    9.1364   13.9781   25.5366 O   0  0  0  0  0  0  0  0  0  0  0  0
    7.5509   12.3260   25.1558 C   0  0  0  0  0  0  0  0  0  0  0  0
    7.6451   10.9724   24.7921 C   0  0  0  0  0  0  0  0  0  0  0  0
    6.8494   10.0244   25.4405 C   0  0  0  0  0  0  0  0  0  0  0  0
    5.9769   10.4445   26.4299 C   0  0  0  0  0  0  0  0  0  0  0  0
    5.8582   11.7948   26.7479 C   0  0  0  0  0  0  0  0  0  0  0  0
    6.6249   12.7547   26.1144 C   0  0  0  0  0  0  0  0  0  0  0  0
    4.9501   11.9573   27.9207 C   0  0  0  0  0  0  0  0  0  0  0  0
    4.4355   10.5151   28.1081 C   0  0  0  0  0  0  0  0  0  0  0  0
    5.3352    9.6270   27.3732 N   0  0  0  0  0  0  0  0  0  0  0  0
    9.5754   14.7210   21.3550 C   0  0  0  0  0  0  0  0  0  0  0  0
  2  1  1  6
  2  3  1  0
  3  4  1  0
  4  5  1  0
  5  6  1  0
  6  7  1  0
  7  8  1  0
  8  9  2  0
  8 10  1  0
 10 11  2  0
 11 12  1  0
 12 13  2  0
 13 14  1  0
 14 15  2  0
 14 16  1  0
 16 17  1  0
 17 18  1  0
  6 19  1  0
 19  2  1  0
 15 10  1  0
 18 13  1  0
M  END
>  <ref_pdb>  (281) 
A3858a

>  <subsites>  (281) 
1 - Active Site

>  <HIPPO Compound ID>  (281) 
59983

>  <energy_score>  (281) 
-35.225447

>  <fragmenstein_mode>  (281) 
expansion

>  <scratch_subdir>  (281) 
/opt/xchem-fragalysis-2/maxwin/BulkDock/SCRATCH/512169/C46024-P225

>  <smiles>  (281) 
C[C@@H]1CCCN(CC(=O)c2ccc3c(c2)CCN3)C1

>  <alias>  (281) 
C46024-P225

>  <ref_mols>  (281) 
A3858a,A1778a

>  <inspiration_score>  (281) 
None

>  <tags>  (281) 
BulkDock Fragalysis export,fragmenstein_placed,openbind_a71ev2a_c1_scaffolds,openbind_a71ev2a_c1_knitwork_pure

>  <fragmenstein_outcome>  (281) 
acceptable

>  <fragmenstein_error>  (281) 


>  <distance_score>  (281) 
0.847483

>  <inchikey>  (281) 
XOUMUYAEIAMCIP-UHFFFAOYSA-N

>  <name>  (281) 
C46024-P225

>  <HIPPO Pose ID>  (281) 
224441

>  <Energy>  (281) 
84.482285

>  <exports>  (281) 
['/opt/xchem-fragalysis-2/maxwin/BulkDock/OUTPUTS/openbind_a71ev2a_c1_knitwork_pure_165VWF8.sdf', '/opt/xchem-fragalysis-2/maxwin/BulkDock/OUTPUTS/openbind_a71ev2a_c1_knitwork_pure_1B07PTU.sdf', '/opt/xchem-fragalysis-2/maxwin/BulkDock/OUTPUTS/openbind_a71ev2a_c1_knitwork_pure_1B07UWE.sdf', '/opt/xchem-fragalysis-2/maxwin/openbind-hippo/a71ev2a/openbind_a71ev2a_c1_scaffold_products.sdf', '/opt/xchem-fragalysis-2/maxwin/openbind-hippo/a71ev2a/cycle_01/bulkdock/openbind_a71ev2a_c1_scaffold_products.sdf', '/opt/xchem-fragalysis-2/maxwin/openbind-hippo/a71ev2a/cycle_01/bulkdock/openbind_a71ev2a_c1_scaffolds.sdf']

>  <fragmenstein_runtime>  (281) 
5.536

$$$$
C46025-P225
     RDKit          3D

 19 21  0  0  0  0  0  0  0  0999 V2000
    8.4273   15.1978   21.0406 C   0  0  0  0  0  0  0  0  0  0  0  0
    9.8217   14.8241   21.5228 C   0  0  1  0  0  0  0  0  0  0  0  0
   10.7196   16.0509   21.2618 C   0  0  0  0  0  0  0  0  0  0  0  0
   12.1314   15.8418   21.7728 C   0  0  0  0  0  0  0  0  0  0  0  0
   12.0841   15.3750   23.2158 C   0  0  0  0  0  0  0  0  0  0  0  0
   11.2309   14.1291   23.3504 C   0  0  0  0  0  0  0  0  0  0  0  0
    9.8467   14.4277   22.9452 N   0  0  0  0  0  0  0  0  0  0  0  0
    8.9831   13.2760   23.2493 C   0  0  0  0  0  0  0  0  0  0  0  0
    8.6844   13.2044   24.7419 C   0  0  0  0  0  0  0  0  0  0  0  0
    9.2192   13.8886   25.6129 O   0  0  0  0  0  0  0  0  0  0  0  0
    7.6732   12.2143   25.1696 C   0  0  0  0  0  0  0  0  0  0  0  0
    7.7582   10.8810   24.7389 C   0  0  0  0  0  0  0  0  0  0  0  0
    6.8962    9.9236   25.2736 C   0  0  0  0  0  0  0  0  0  0  0  0
    5.9964   10.3053   26.2493 C   0  0  0  0  0  0  0  0  0  0  0  0
    5.8926   11.6391   26.6416 C   0  0  0  0  0  0  0  0  0  0  0  0
    6.7119   12.6132   26.1066 C   0  0  0  0  0  0  0  0  0  0  0  0
    4.8169   11.7655   27.6667 C   0  0  0  0  0  0  0  0  0  0  0  0
    4.6243   10.2809   28.0404 C   0  0  0  0  0  0  0  0  0  0  0  0
    5.0353    9.4935   26.8761 N   0  0  0  0  0  0  0  0  0  0  0  0
  2  1  1  1
  2  3  1  0
  3  4  1  0
  4  5  1  0
  5  6  1  0
  6  7  1  0
  7  8  1  0
  8  9  1  0
  9 10  2  0
  9 11  1  0
 11 12  2  0
 12 13  1  0
 13 14  2  0
 14 15  1  0
 15 16  2  0
 15 17  1  0
 17 18  1  0
 18 19  1  0
  7  2  1  0
 16 11  1  0
 19 14  1  0
M  END
>  <ref_pdb>  (282) 
A3858a

>  <subsites>  (282) 
1 - Active Site

>  <HIPPO Compound ID>  (282) 
46656

>  <energy_score>  (282) 
-54.250433

>  <fragmenstein_mode>  (282) 
expansion

>  <scratch_subdir>  (282) 
/opt/xchem-fragalysis-2/maxwin/BulkDock/SCRATCH/512169/C46025-P225

>  <smiles>  (282) 
C[C@H]1CCCCN1CC(=O)c1ccc2c(c1)CCN2

>  <alias>  (282) 
C46025-P225

>  <ref_mols>  (282) 
A3858a,A1778a

>  <inspiration_score>  (282) 
None

>  <tags>  (282) 
BulkDock Fragalysis export,fragmenstein_placed,openbind_a71ev2a_c1_scaffolds,openbind_a71ev2a_c1_knitwork_pure

>  <fragmenstein_outcome>  (282) 
acceptable

>  <fragmenstein_error>  (282) 


>  <distance_score>  (282) 
0.832434

>  <inchikey>  (282) 
AMVABLYBMIDGRH-UHFFFAOYSA-N

>  <name>  (282) 
C46025-P225

>  <HIPPO Pose ID>  (282) 
224442

>  <Energy>  (282) 
81.45119

>  <exports>  (282) 
['/opt/xchem-fragalysis-2/maxwin/BulkDock/OUTPUTS/openbind_a71ev2a_c1_knitwork_pure_165VWF8.sdf', '/opt/xchem-fragalysis-2/maxwin/BulkDock/OUTPUTS/openbind_a71ev2a_c1_knitwork_pure_1B07PTU.sdf', '/opt/xchem-fragalysis-2/maxwin/BulkDock/OUTPUTS/openbind_a71ev2a_c1_knitwork_pure_1B07UWE.sdf', '/opt/xchem-fragalysis-2/maxwin/openbind-hippo/a71ev2a/openbind_a71ev2a_c1_scaffold_products.sdf', '/opt/xchem-fragalysis-2/maxwin/openbind-hippo/a71ev2a/cycle_01/bulkdock/openbind_a71ev2a_c1_scaffold_products.sdf', '/opt/xchem-fragalysis-2/maxwin/openbind-hippo/a71ev2a/cycle_01/bulkdock/openbind_a71ev2a_c1_scaffolds.sdf']

>  <fragmenstein_runtime>  (282) 
6.108117

$$$$
C46033-P225
     RDKit          3D

 19 21  0  0  0  0  0  0  0  0999 V2000
   10.5258   15.5915   19.2330 C   0  0  0  0  0  0  0  0  0  0  0  0
   10.5321   15.7282   20.7506 C   0  0  1  0  0  0  0  0  0  0  0  0
    9.5154   14.7813   21.4077 C   0  0  0  0  0  0  0  0  0  0  0  0
    9.6057   14.8575   22.9302 C   0  0  1  0  0  0  0  0  0  0  0  0
    8.7620   13.8954   23.6073 N   0  0  0  0  0  0  0  0  0  0  0  0
    8.2971   13.8314   25.0674 C   0  0  0  0  0  0  0  0  0  0  0  0
    8.5788   14.4985   25.9795 O   0  0  0  0  0  0  0  0  0  0  0  0
    7.4168   12.6532   25.3317 C   0  0  0  0  0  0  0  0  0  0  0  0
    7.6895   11.3732   24.8025 C   0  0  0  0  0  0  0  0  0  0  0  0
    6.9544   10.2576   25.2325 C   0  0  0  0  0  0  0  0  0  0  0  0
    6.0009   10.4345   26.2184 C   0  0  0  0  0  0  0  0  0  0  0  0
    5.7259   11.7056   26.7235 C   0  0  0  0  0  0  0  0  0  0  0  0
    6.4085   12.8232   26.2885 C   0  0  0  0  0  0  0  0  0  0  0  0
    4.6349   11.6142   27.7370 C   0  0  0  0  0  0  0  0  0  0  0  0
    4.6074   10.0915   27.9662 C   0  0  0  0  0  0  0  0  0  0  0  0
    5.1266    9.4721   26.7449 N   0  0  0  0  0  0  0  0  0  0  0  0
   11.0462   14.6698   23.4084 C   0  0  0  0  0  0  0  0  0  0  0  0
   11.9689   15.6287   22.6814 C   0  0  0  0  0  0  0  0  0  0  0  0
   11.8773   15.4293   21.2460 N   0  0  0  0  0  0  0  0  0  0  0  0
  2  1  1  6
  2  3  1  0
  3  4  1  0
  4  5  1  1
  5  6  1  0
  6  7  2  0
  6  8  1  0
  8  9  2  0
  9 10  1  0
 10 11  2  0
 11 12  1  0
 12 13  2  0
 12 14  1  0
 14 15  1  0
 15 16  1  0
  4 17  1  0
 17 18  1  0
 18 19  1  0
 19  2  1  0
 13  8  1  0
 16 11  1  0
M  END
>  <ref_pdb>  (283) 
A3858a

>  <subsites>  (283) 
1 - Active Site

>  <HIPPO Compound ID>  (283) 
50998

>  <energy_score>  (283) 
-22.906909

>  <fragmenstein_mode>  (283) 
expansion

>  <scratch_subdir>  (283) 
/opt/xchem-fragalysis-2/maxwin/BulkDock/SCRATCH/512169/C46033-P225

>  <smiles>  (283) 
C[C@H]1C[C@@H](NC(=O)c2ccc3c(c2)CCN3)CCN1

>  <alias>  (283) 
C46033-P225

>  <ref_mols>  (283) 
A3858a,A1778a

>  <inspiration_score>  (283) 
None

>  <tags>  (283) 
BulkDock Fragalysis export,fragmenstein_placed,openbind_a71ev2a_c1_scaffolds,openbind_a71ev2a_c1_knitwork_pure

>  <fragmenstein_outcome>  (283) 
acceptable

>  <fragmenstein_error>  (283) 


>  <distance_score>  (283) 
0.951425

>  <inchikey>  (283) 
WKBRMGXSMGHJIB-UHFFFAOYSA-N

>  <name>  (283) 
C46033-P225

>  <HIPPO Pose ID>  (283) 
224447

>  <Energy>  (283) 
28.861308

>  <exports>  (283) 
['/opt/xchem-fragalysis-2/maxwin/BulkDock/OUTPUTS/openbind_a71ev2a_c1_knitwork_pure_165VWF8.sdf', '/opt/xchem-fragalysis-2/maxwin/BulkDock/OUTPUTS/openbind_a71ev2a_c1_knitwork_pure_1B07PTU.sdf', '/opt/xchem-fragalysis-2/maxwin/BulkDock/OUTPUTS/openbind_a71ev2a_c1_knitwork_pure_1B07UWE.sdf', '/opt/xchem-fragalysis-2/maxwin/openbind-hippo/a71ev2a/openbind_a71ev2a_c1_scaffold_products.sdf', '/opt/xchem-fragalysis-2/maxwin/openbind-hippo/a71ev2a/cycle_01/bulkdock/openbind_a71ev2a_c1_scaffold_products.sdf', '/opt/xchem-fragalysis-2/maxwin/openbind-hippo/a71ev2a/cycle_01/bulkdock/openbind_a71ev2a_c1_scaffolds.sdf']

>  <fragmenstein_runtime>  (283) 
3.681032

$$$$
C57129-P481
     RDKit          3D

 22 24  0  0  0  0  0  0  0  0999 V2000
   16.9106   14.6290    3.5835 O   0  0  0  0  0  0  0  0  0  0  0  0
   17.2362   15.0822    2.5586 C   0  0  0  0  0  0  0  0  0  0  0  0
   16.3648   16.0780    1.7917 C   0  0  0  0  0  0  0  0  0  0  0  0
   16.5758   17.5410    2.2189 C   0  0  1  0  0  0  0  0  0  0  0  0
   16.0383   17.8173    3.6358 C   0  0  0  0  0  0  0  0  0  0  0  0
   16.6823   19.0463    4.2804 C   0  0  0  0  0  0  0  0  0  0  0  0
   17.1965   20.0271    3.2345 C   0  0  0  0  0  0  0  0  0  0  0  0
   18.2176   19.4346    2.3716 N   0  0  0  0  0  0  0  0  0  0  0  0
   18.0303   18.0119    2.0915 C   0  0  0  0  0  0  0  0  0  0  0  0
   18.5419   14.8919    1.7461 N   0  0  0  0  0  0  0  0  0  0  0  0
   19.7525   14.1805    2.0729 C   0  0  0  0  0  0  0  0  0  0  0  0
   20.9451   15.1312    2.1091 C   0  0  0  0  0  0  0  0  0  0  0  0
   22.2590   14.4277    2.4648 C   0  0  0  0  0  0  0  0  0  0  0  0
   22.8075   13.6804    1.3023 C   0  0  0  0  0  0  0  0  0  0  0  0
   22.2308   13.5278    0.1258 N   0  0  0  0  0  0  0  0  0  0  0  0
   23.0916   12.8454   -0.6952 N   0  0  0  0  0  0  0  0  0  0  0  0
   24.1828   12.5947   -0.0083 C   0  0  0  0  0  0  0  0  0  0  0  0
   24.0316   13.0738    1.2653 N   0  0  0  0  0  0  0  0  0  0  0  0
   25.0595   13.0390    2.2821 C   0  0  0  0  0  0  0  0  0  0  0  0
   26.2061   12.0889    1.9240 C   0  0  0  0  0  0  0  0  0  0  0  0
   26.5997   12.2255    0.4515 C   0  0  0  0  0  0  0  0  0  0  0  0
   25.4162   11.9091   -0.4647 C   0  0  0  0  0  0  0  0  0  0  0  0
  1  2  2  0
  2  3  1  0
  4  3  1  1
  4  5  1  0
  5  6  1  0
  6  7  1  0
  7  8  1  0
  8  9  1  0
  2 10  1  0
 10 11  1  0
 11 12  1  0
 12 13  1  0
 13 14  1  0
 14 15  2  0
 15 16  1  0
 16 17  2  0
 17 18  1  0
 18 19  1  0
 19 20  1  0
 20 21  1  0
 21 22  1  0
  9  4  1  0
 18 14  1  0
 22 17  1  0
M  END
>  <ref_pdb>  (284) 
A4836a

>  <subsites>  (284) 
1 - Active Site,6 - A0486/A/147/1

>  <HIPPO Compound ID>  (284) 
78609

>  <energy_score>  (284) 
-11.870685

>  <fragmenstein_mode>  (284) 
expansion

>  <scratch_subdir>  (284) 
/opt/xchem-fragalysis-2/maxwin/BulkDock/SCRATCH/512169/C57129-P481

>  <smiles>  (284) 
O=C(C[C@H]1CCCNC1)NCCCc1nnc2n1CCCC2

>  <alias>  (284) 
C57129-P481

>  <ref_mols>  (284) 
A4836a,A0239a

>  <inspiration_score>  (284) 
None

>  <tags>  (284) 
BulkDock Fragalysis export,fragmenstein_placed,openbind_a71ev2a_c1_scaffolds,openbind_a71ev2a_c1_knitwork_pure

>  <fragmenstein_outcome>  (284) 
acceptable

>  <fragmenstein_error>  (284) 


>  <distance_score>  (284) 
0.78453

>  <inchikey>  (284) 
VRSHMDURHCTYSQ-UHFFFAOYSA-N

>  <name>  (284) 
C57129-P481

>  <HIPPO Pose ID>  (284) 
224676

>  <Energy>  (284) 
-9.342497

>  <exports>  (284) 
['/opt/xchem-fragalysis-2/maxwin/BulkDock/OUTPUTS/openbind_a71ev2a_c1_knitwork_pure_165VWF8.sdf', '/opt/xchem-fragalysis-2/maxwin/BulkDock/OUTPUTS/openbind_a71ev2a_c1_knitwork_pure_1B07PTU.sdf', '/opt/xchem-fragalysis-2/maxwin/BulkDock/OUTPUTS/openbind_a71ev2a_c1_knitwork_pure_1B07UWE.sdf', '/opt/xchem-fragalysis-2/maxwin/openbind-hippo/a71ev2a/openbind_a71ev2a_c1_scaffold_products.sdf', '/opt/xchem-fragalysis-2/maxwin/openbind-hippo/a71ev2a/cycle_01/bulkdock/openbind_a71ev2a_c1_scaffold_products.sdf', '/opt/xchem-fragalysis-2/maxwin/openbind-hippo/a71ev2a/cycle_01/bulkdock/openbind_a71ev2a_c1_scaffolds.sdf']

>  <fragmenstein_runtime>  (284) 
2.81298

$$$$
C57137-P481
     RDKit          3D

 21 23  0  0  0  0  0  0  0  0999 V2000
   20.8777   14.8568    2.1049 C   0  0  0  0  0  0  0  0  0  0  0  0
   22.2870   14.3884    2.4398 C   0  0  0  0  0  0  0  0  0  0  0  0
   22.8707   13.6107    1.3148 C   0  0  0  0  0  0  0  0  0  0  0  0
   22.2897   13.3240    0.1659 N   0  0  0  0  0  0  0  0  0  0  0  0
   23.1864   12.6417   -0.6157 N   0  0  0  0  0  0  0  0  0  0  0  0
   24.3163   12.5494    0.0524 C   0  0  0  0  0  0  0  0  0  0  0  0
   24.1333   13.0887    1.2999 N   0  0  0  0  0  0  0  0  0  0  0  0
   25.1391   13.1317    2.3383 C   0  0  0  0  0  0  0  0  0  0  0  0
   26.3086   12.1902    2.0485 C   0  0  0  0  0  0  0  0  0  0  0  0
   26.7386   12.2942    0.5848 C   0  0  0  0  0  0  0  0  0  0  0  0
   25.5919   11.8868   -0.3568 C   0  0  2  0  0  0  0  0  0  0  0  0
   25.9435   12.1997   -1.8273 C   0  0  0  0  0  0  0  0  0  0  0  0
   26.9120   12.7775   -2.1338 O   0  0  0  0  0  0  0  0  0  0  0  0
   24.8543   11.5232   -2.7059 N   0  0  0  0  0  0  0  0  0  0  0  0
   24.6868   11.5027   -4.1341 C   0  0  0  0  0  0  0  0  0  0  0  0
   24.8925   10.0975   -4.7232 C   0  0  1  0  0  0  0  0  0  0  0  0
   24.5665   10.0845   -6.2256 C   0  0  0  0  0  0  0  0  0  0  0  0
   25.6625   10.7597   -7.0493 C   0  0  0  0  0  0  0  0  0  0  0  0
   27.0399   10.1880   -6.7185 C   0  0  0  0  0  0  0  0  0  0  0  0
   27.3403   10.2402   -5.2890 N   0  0  0  0  0  0  0  0  0  0  0  0
   26.3142    9.5453   -4.5046 C   0  0  0  0  0  0  0  0  0  0  0  0
  1  2  1  0
  2  3  1  0
  3  4  2  0
  4  5  1  0
  5  6  2  0
  6  7  1  0
  7  8  1  0
  8  9  1  0
  9 10  1  0
 10 11  1  0
 11 12  1  6
 12 13  2  0
 12 14  1  0
 14 15  1  0
 16 15  1  6
 16 17  1  0
 17 18  1  0
 18 19  1  0
 19 20  1  0
 20 21  1  0
  7  3  1  0
 21 16  1  0
 11  6  1  0
M  END
>  <ref_pdb>  (285) 
A4836a

>  <subsites>  (285) 
1 - Active Site,6 - A0486/A/147/1

>  <HIPPO Compound ID>  (285) 
46489

>  <energy_score>  (285) 
-27.725608

>  <fragmenstein_mode>  (285) 
expansion

>  <scratch_subdir>  (285) 
/opt/xchem-fragalysis-2/maxwin/BulkDock/SCRATCH/512169/C57137-P481

>  <smiles>  (285) 
CCc1nnc2n1CCC[C@@H]2C(=O)NC[C@H]1CCCNC1

>  <alias>  (285) 
C57137-P481

>  <ref_mols>  (285) 
A4836a,A0239a

>  <inspiration_score>  (285) 
None

>  <tags>  (285) 
BulkDock Fragalysis export,fragmenstein_placed,openbind_a71ev2a_c1_scaffolds,openbind_a71ev2a_c1_knitwork_pure

>  <fragmenstein_outcome>  (285) 
acceptable

>  <fragmenstein_error>  (285) 


>  <distance_score>  (285) 
0.872258

>  <inchikey>  (285) 
SZIVMHZNNDPTLC-UHFFFAOYSA-N

>  <name>  (285) 
C57137-P481

>  <HIPPO Pose ID>  (285) 
224677

>  <Energy>  (285) 
9.50989

>  <exports>  (285) 
['/opt/xchem-fragalysis-2/maxwin/BulkDock/OUTPUTS/openbind_a71ev2a_c1_knitwork_pure_165VWF8.sdf', '/opt/xchem-fragalysis-2/maxwin/BulkDock/OUTPUTS/openbind_a71ev2a_c1_knitwork_pure_1B07PTU.sdf', '/opt/xchem-fragalysis-2/maxwin/BulkDock/OUTPUTS/openbind_a71ev2a_c1_knitwork_pure_1B07UWE.sdf', '/opt/xchem-fragalysis-2/maxwin/openbind-hippo/a71ev2a/openbind_a71ev2a_c1_scaffold_products.sdf', '/opt/xchem-fragalysis-2/maxwin/openbind-hippo/a71ev2a/cycle_01/bulkdock/openbind_a71ev2a_c1_scaffold_products.sdf', '/opt/xchem-fragalysis-2/maxwin/openbind-hippo/a71ev2a/cycle_01/bulkdock/openbind_a71ev2a_c1_scaffolds.sdf']

>  <fragmenstein_runtime>  (285) 
1.95112

$$$$
C57140-P481
     RDKit          3D

 22 24  0  0  0  0  0  0  0  0999 V2000
   20.9275   14.3122    2.5653 C   0  0  0  0  0  0  0  0  0  0  0  0
   22.4478   14.1874    2.5159 C   0  0  0  0  0  0  0  0  0  0  0  0
   22.8759   13.7032    1.1801 C   0  0  0  0  0  0  0  0  0  0  0  0
   22.1666   13.7857    0.0700 N   0  0  0  0  0  0  0  0  0  0  0  0
   22.8395   13.1354   -0.9270 N   0  0  0  0  0  0  0  0  0  0  0  0
   23.9651   12.6937   -0.4201 C   0  0  0  0  0  0  0  0  0  0  0  0
   24.0487   13.0587    0.8981 N   0  0  0  0  0  0  0  0  0  0  0  0
   25.2306   12.8895    1.7207 C   0  0  0  0  0  0  0  0  0  0  0  0
   26.2942   11.9945    1.0468 C   0  0  2  0  0  0  0  0  0  0  0  0
   27.6095   12.1461    1.6235 N   0  0  0  0  0  0  0  0  0  0  0  0
   28.1532   11.7205    3.0012 C   0  0  0  0  0  0  0  0  0  0  0  0
   27.6489   11.1143    3.8552 O   0  0  0  0  0  0  0  0  0  0  0  0
   29.5858   12.2631    3.0857 C   0  0  0  0  0  0  0  0  0  0  0  0
   30.4682   11.3913    3.9842 C   0  0  0  0  0  0  0  0  0  0  0  0
   31.9094   11.8862    4.1985 C   0  0  1  0  0  0  0  0  0  0  0  0
   32.6988   12.0601    2.8991 C   0  0  0  0  0  0  0  0  0  0  0  0
   34.1551   12.4422    3.1905 C   0  0  0  0  0  0  0  0  0  0  0  0
   34.3613   13.0059    4.5986 C   0  0  0  0  0  0  0  0  0  0  0  0
   33.2600   13.8831    4.9703 N   0  0  0  0  0  0  0  0  0  0  0  0
   31.9750   13.1759    5.0434 C   0  0  0  0  0  0  0  0  0  0  0  0
   26.3767   12.2092   -0.4643 C   0  0  0  0  0  0  0  0  0  0  0  0
   25.0289   11.9360   -1.1111 C   0  0  0  0  0  0  0  0  0  0  0  0
  1  2  1  0
  2  3  1  0
  3  4  2  0
  4  5  1  0
  5  6  2  0
  6  7  1  0
  7  8  1  0
  8  9  1  0
  9 10  1  1
 10 11  1  0
 11 12  2  0
 11 13  1  0
 13 14  1  0
 15 14  1  6
 15 16  1  0
 16 17  1  0
 17 18  1  0
 18 19  1  0
 19 20  1  0
  9 21  1  0
 21 22  1  0
  7  3  1  0
 20 15  1  0
 22  6  1  0
M  END
>  <ref_pdb>  (286) 
A4836a

>  <subsites>  (286) 
1 - Active Site,6 - A0486/A/147/1

>  <HIPPO Compound ID>  (286) 
47143

>  <energy_score>  (286) 
-24.941856

>  <fragmenstein_mode>  (286) 
expansion

>  <scratch_subdir>  (286) 
/opt/xchem-fragalysis-2/maxwin/BulkDock/SCRATCH/512169/C57140-P481

>  <smiles>  (286) 
CCc1nnc2n1C[C@H](NC(=O)CC[C@H]1CCCNC1)CC2

>  <alias>  (286) 
C57140-P481

>  <ref_mols>  (286) 
A4836a,A0239a

>  <inspiration_score>  (286) 
None

>  <tags>  (286) 
BulkDock Fragalysis export,fragmenstein_placed,openbind_a71ev2a_c1_scaffolds,openbind_a71ev2a_c1_knitwork_pure

>  <fragmenstein_outcome>  (286) 
acceptable

>  <fragmenstein_error>  (286) 


>  <distance_score>  (286) 
0.747509

>  <inchikey>  (286) 
FGSGQPZOSTVLEH-UHFFFAOYSA-N

>  <name>  (286) 
C57140-P481

>  <HIPPO Pose ID>  (286) 
224680

>  <Energy>  (286) 
7.338705

>  <exports>  (286) 
['/opt/xchem-fragalysis-2/maxwin/BulkDock/OUTPUTS/openbind_a71ev2a_c1_knitwork_pure_165VWF8.sdf', '/opt/xchem-fragalysis-2/maxwin/BulkDock/OUTPUTS/openbind_a71ev2a_c1_knitwork_pure_1B07PTU.sdf', '/opt/xchem-fragalysis-2/maxwin/BulkDock/OUTPUTS/openbind_a71ev2a_c1_knitwork_pure_1B07UWE.sdf', '/opt/xchem-fragalysis-2/maxwin/openbind-hippo/a71ev2a/openbind_a71ev2a_c1_scaffold_products.sdf', '/opt/xchem-fragalysis-2/maxwin/openbind-hippo/a71ev2a/cycle_01/bulkdock/openbind_a71ev2a_c1_scaffold_products.sdf', '/opt/xchem-fragalysis-2/maxwin/openbind-hippo/a71ev2a/cycle_01/bulkdock/openbind_a71ev2a_c1_scaffolds.sdf']

>  <fragmenstein_runtime>  (286) 
3.097474

$$$$
C79212-P220
     RDKit          3D

 18 19  0  0  0  0  0  0  0  0999 V2000
   19.1411   21.6736    1.4079 C   0  0  0  0  0  0  0  0  0  0  0  0
   20.1128   21.1126    2.2916 O   0  0  0  0  0  0  0  0  0  0  0  0
   20.5027   19.8498    1.9523 C   0  0  0  0  0  0  0  0  0  0  0  0
   20.0682   19.2181    0.9993 O   0  0  0  0  0  0  0  0  0  0  0  0
   21.4839   19.3872    2.8930 C   0  0  0  0  0  0  0  0  0  0  0  0
   21.9133   20.0767    4.0040 N   0  0  0  0  0  0  0  0  0  0  0  0
   22.8172   19.3030    4.6707 C   0  0  0  0  0  0  0  0  0  0  0  0
   23.4862   19.7285    5.9903 C   0  0  0  0  0  0  0  0  0  0  0  0
   24.4066   18.9886    6.6872 C   0  0  0  0  0  0  0  0  0  0  0  0
   24.7236   19.6825    7.8163 O   0  0  0  0  0  0  0  0  0  0  0  0
   23.9706   20.8167    7.7196 C   0  0  0  0  0  0  0  0  0  0  0  0
   23.2270   20.9099    6.6372 N   0  0  0  0  0  0  0  0  0  0  0  0
   23.0114   18.1645    4.0473 N   0  0  0  0  0  0  0  0  0  0  0  0
   22.1988   18.1988    2.9344 C   0  0  0  0  0  0  0  0  0  0  0  0
   22.1408   17.0308    1.9995 C   0  0  0  0  0  0  0  0  0  0  0  0
   23.3753   16.1105    2.0509 C   0  0  0  0  0  0  0  0  0  0  0  0
   23.0642   14.7799    1.3671 C   0  0  0  0  0  0  0  0  0  0  0  0
   24.5982   16.7667    1.4070 C   0  0  0  0  0  0  0  0  0  0  0  0
  1  2  1  0
  2  3  1  0
  3  4  2  0
  3  5  1  0
  5  6  1  0
  6  7  1  0
  7  8  1  0
  8  9  2  0
  9 10  1  0
 10 11  1  0
 11 12  2  0
  7 13  2  0
 13 14  1  0
 14 15  1  0
 15 16  1  0
 16 17  1  0
 16 18  1  0
 14  5  2  0
 12  8  1  0
M  END
>  <ref_pdb>  (287) 
A3568a

>  <subsites>  (287) 
1 - Active Site,6 - A0486/A/147/1

>  <HIPPO Compound ID>  (287) 
52296

>  <energy_score>  (287) 
-36.368791

>  <fragmenstein_mode>  (287) 
expansion

>  <scratch_subdir>  (287) 
/opt/xchem-fragalysis-2/maxwin/BulkDock/SCRATCH/511232/C79212-P220

>  <smiles>  (287) 
COC(=O)c1[nH]c(-c2cocn2)nc1CC(C)C

>  <alias>  (287) 
C79212-P220

>  <ref_mols>  (287) 
A3568a,A0309a

>  <inspiration_score>  (287) 
None

>  <tags>  (287) 
BulkDock Fragalysis export,fragmenstein_placed,openbind_a71ev2a_c1_scaffolds,openbind_a71ev2a_c1_knitwork_pure

>  <fragmenstein_outcome>  (287) 
acceptable

>  <fragmenstein_error>  (287) 


>  <distance_score>  (287) 
0.533322

>  <inchikey>  (287) 
GKINGEPBNWSYJT-UHFFFAOYSA-N

>  <name>  (287) 
C79212-P220

>  <HIPPO Pose ID>  (287) 
224688

>  <Energy>  (287) 
-8.178774

>  <exports>  (287) 
['/opt/xchem-fragalysis-2/maxwin/BulkDock/OUTPUTS/openbind_a71ev2a_c1_knitwork_pure_165VWF8.sdf', '/opt/xchem-fragalysis-2/maxwin/BulkDock/OUTPUTS/openbind_a71ev2a_c1_knitwork_pure_1B07PTU.sdf', '/opt/xchem-fragalysis-2/maxwin/BulkDock/OUTPUTS/openbind_a71ev2a_c1_knitwork_pure_1B07UWE.sdf', '/opt/xchem-fragalysis-2/maxwin/openbind-hippo/a71ev2a/openbind_a71ev2a_c1_scaffold_products.sdf', '/opt/xchem-fragalysis-2/maxwin/openbind-hippo/a71ev2a/cycle_01/bulkdock/openbind_a71ev2a_c1_scaffold_products.sdf', '/opt/xchem-fragalysis-2/maxwin/openbind-hippo/a71ev2a/cycle_01/bulkdock/openbind_a71ev2a_c1_scaffolds.sdf']

>  <fragmenstein_runtime>  (287) 
1.680594

$$$$
C13210-P271
     RDKit          3D

 13 13  0  0  0  0  0  0  0  0999 V2000
    7.0347   15.4459   26.5856 C   0  0  0  0  0  0  0  0  0  0  0  0
    7.7717   15.4182   25.2571 C   0  0  0  0  0  0  0  0  0  0  0  0
    6.8478   15.0078   24.1147 C   0  0  0  0  0  0  0  0  0  0  0  0
    7.7168   14.3216   22.7085 S   0  0  0  0  0  0  0  0  0  0  0  0
    8.4342   15.3869   22.0443 O   0  0  0  0  0  0  0  0  0  0  0  0
    6.8263   13.4512   21.9686 O   0  0  0  0  0  0  0  0  0  0  0  0
    8.9308   13.3518   23.4508 N   0  0  0  0  0  0  0  0  0  0  0  0
    8.4533   12.0550   23.7413 N   0  0  0  0  0  0  0  0  0  0  0  0
    9.5192   11.0634   23.5300 C   0  0  0  0  0  0  0  0  0  0  0  0
    9.0319    9.6369   23.7233 C   0  0  0  0  0  0  0  0  0  0  0  0
    8.2386    9.4710   24.9958 C   0  0  0  0  0  0  0  0  0  0  0  0
    7.3427   10.6068   25.4120 C   0  0  0  0  0  0  0  0  0  0  0  0
    7.9655   11.9589   25.1260 C   0  0  0  0  0  0  0  0  0  0  0  0
  1  2  1  0
  2  3  1  0
  3  4  1  0
  4  5  2  0
  4  6  2  0
  4  7  1  0
  7  8  1  0
  8  9  1  0
  9 10  1  0
 10 11  1  0
 11 12  1  0
 12 13  1  0
 13  8  1  0
M  END
>  <ref_pdb>  (288) 
A4020b

>  <subsites>  (288) 
1 - Active Site

>  <HIPPO Compound ID>  (288) 
45760

>  <energy_score>  (288) 
-25.061871

>  <fragmenstein_mode>  (288) 
expansion

>  <scratch_subdir>  (288) 
/opt/xchem-fragalysis-2/maxwin/BulkDock/SCRATCH/511232/C13210-P271

>  <smiles>  (288) 
CCCS(=O)(=O)NN1CCCCC1

>  <alias>  (288) 
C13210-P271

>  <ref_mols>  (288) 
A0719a,A4020b

>  <inspiration_score>  (288) 
None

>  <tags>  (288) 
BulkDock Fragalysis export,fragmenstein_placed,openbind_a71ev2a_c1_scaffolds,openbind_a71ev2a_c1_knitwork_pure

>  <fragmenstein_outcome>  (288) 
acceptable

>  <fragmenstein_error>  (288) 


>  <distance_score>  (288) 
0.856598

>  <inchikey>  (288) 
YZUDVCSNWGWELH-UHFFFAOYSA-N

>  <name>  (288) 
C13210-P271

>  <HIPPO Pose ID>  (288) 
225287

>  <Energy>  (288) 
31.894495

>  <exports>  (288) 
['/opt/xchem-fragalysis-2/maxwin/BulkDock/OUTPUTS/openbind_a71ev2a_c1_knitwork_pure_165VWF8.sdf', '/opt/xchem-fragalysis-2/maxwin/BulkDock/OUTPUTS/openbind_a71ev2a_c1_knitwork_pure_1B07PTU.sdf', '/opt/xchem-fragalysis-2/maxwin/BulkDock/OUTPUTS/openbind_a71ev2a_c1_knitwork_pure_1B07UWE.sdf', '/opt/xchem-fragalysis-2/maxwin/openbind-hippo/a71ev2a/openbind_a71ev2a_c1_scaffold_products.sdf', '/opt/xchem-fragalysis-2/maxwin/openbind-hippo/a71ev2a/cycle_01/bulkdock/openbind_a71ev2a_c1_scaffold_products.sdf', '/opt/xchem-fragalysis-2/maxwin/openbind-hippo/a71ev2a/cycle_01/bulkdock/openbind_a71ev2a_c1_scaffolds.sdf']

>  <fragmenstein_runtime>  (288) 
8.03647

$$$$
C63652-P229
     RDKit          3D

 20 21  0  0  0  0  0  0  0  0999 V2000
    7.5416   13.8141   23.1795 C   0  0  0  0  0  0  0  0  0  0  0  0
    8.8121   13.6033   23.8933 N   0  0  0  0  0  0  0  0  0  0  0  0
    9.8552   14.1707   23.0353 C   0  0  0  0  0  0  0  0  0  0  0  0
   11.3066   14.1925   23.5062 C   0  0  0  0  0  0  0  0  0  0  0  0
   12.0431   15.2503   22.8789 O   0  0  0  0  0  0  0  0  0  0  0  0
   12.1128   15.1824   21.4474 C   0  0  0  0  0  0  0  0  0  0  0  0
   10.9745   15.9128   20.7216 C   0  0  0  0  0  0  0  0  0  0  0  0
   11.1583   15.8881   19.3132 O   0  0  0  0  0  0  0  0  0  0  0  0
    9.0445   12.2051   24.2716 C   0  0  0  0  0  0  0  0  0  0  0  0
    8.0322   11.6507   25.2537 C   0  0  0  0  0  0  0  0  0  0  0  0
    7.2489   12.4781   26.0618 C   0  0  0  0  0  0  0  0  0  0  0  0
    6.2286   11.9442   26.8347 C   0  0  0  0  0  0  0  0  0  0  0  0
    6.0797   10.5659   26.8886 C   0  0  0  0  0  0  0  0  0  0  0  0
    5.0082   10.0702   27.6966 N   0  0  0  0  0  0  0  0  0  0  0  0
    4.9053    8.8507   28.3196 C   0  0  0  0  0  0  0  0  0  0  0  0
    3.6379    8.7392   28.8314 C   0  0  0  0  0  0  0  0  0  0  0  0
    3.0708    9.9935   28.5914 C   0  0  0  0  0  0  0  0  0  0  0  0
    3.9111   10.8324   27.9827 N   0  0  0  0  0  0  0  0  0  0  0  0
    6.9085    9.7143   26.2167 N   0  0  0  0  0  0  0  0  0  0  0  0
    7.8316   10.2802   25.3895 C   0  0  0  0  0  0  0  0  0  0  0  0
  1  2  1  0
  2  3  1  0
  3  4  1  0
  4  5  1  0
  5  6  1  0
  6  7  1  0
  7  8  1  0
  2  9  1  0
  9 10  1  0
 10 11  2  0
 11 12  1  0
 12 13  2  0
 13 14  1  0
 14 15  1  0
 15 16  2  0
 16 17  1  0
 17 18  2  0
 13 19  1  0
 19 20  2  0
 20 10  1  0
 18 14  1  0
M  END
>  <ref_pdb>  (289) 
A3869a

>  <subsites>  (289) 
1 - Active Site

>  <HIPPO Compound ID>  (289) 
51171

>  <energy_score>  (289) 
-23.879086

>  <fragmenstein_mode>  (289) 
expansion

>  <scratch_subdir>  (289) 
/opt/xchem-fragalysis-2/maxwin/BulkDock/SCRATCH/511232/C63652-P229

>  <smiles>  (289) 
CN(CCOCCO)Cc1ccc(-n2cccn2)nc1

>  <alias>  (289) 
C63652-P229

>  <ref_mols>  (289) 
A0556a,A3869a

>  <inspiration_score>  (289) 
None

>  <tags>  (289) 
BulkDock Fragalysis export,fragmenstein_placed,openbind_a71ev2a_c1_scaffolds,openbind_a71ev2a_c1_knitwork_pure

>  <fragmenstein_outcome>  (289) 
acceptable

>  <fragmenstein_error>  (289) 


>  <distance_score>  (289) 
0.995889

>  <inchikey>  (289) 
SBSIUJKZMODQOZ-UHFFFAOYSA-N

>  <name>  (289) 
C63652-P229

>  <HIPPO Pose ID>  (289) 
227179

>  <Energy>  (289) 
130.359854

>  <exports>  (289) 
['/opt/xchem-fragalysis-2/maxwin/BulkDock/OUTPUTS/openbind_a71ev2a_c1_knitwork_pure_165VWF8.sdf', '/opt/xchem-fragalysis-2/maxwin/BulkDock/OUTPUTS/openbind_a71ev2a_c1_knitwork_pure_1B07PTU.sdf', '/opt/xchem-fragalysis-2/maxwin/BulkDock/OUTPUTS/openbind_a71ev2a_c1_knitwork_pure_1B07UWE.sdf', '/opt/xchem-fragalysis-2/maxwin/openbind-hippo/a71ev2a/openbind_a71ev2a_c1_scaffold_products.sdf', '/opt/xchem-fragalysis-2/maxwin/openbind-hippo/a71ev2a/cycle_01/bulkdock/openbind_a71ev2a_c1_scaffold_products.sdf', '/opt/xchem-fragalysis-2/maxwin/openbind-hippo/a71ev2a/cycle_01/bulkdock/openbind_a71ev2a_c1_scaffolds.sdf']

>  <fragmenstein_runtime>  (289) 
5.202981

$$$$
C24948-P174
     RDKit          3D

 14 15  0  0  0  0  0  0  0  0999 V2000
   16.1587   14.8933    0.4046 C   0  0  0  0  0  0  0  0  0  0  0  0
   17.6177   14.7044    0.7764 C   0  0  2  0  0  0  0  0  0  0  0  0
   18.1276   13.2928    0.5186 C   0  0  0  0  0  0  0  0  0  0  0  0
   19.1717   13.1051    1.6063 C   0  0  1  0  0  0  0  0  0  0  0  0
   20.5322   13.6956    1.1883 C   0  0  0  0  0  0  0  0  0  0  0  0
   21.5342   13.4922    2.2315 N   0  0  0  0  0  0  0  0  0  0  0  0
   22.8746   13.9674    1.8496 C   0  0  0  0  0  0  0  0  0  0  0  0
   22.9927   15.4662    1.8255 C   0  0  0  0  0  0  0  0  0  0  0  0
   22.1484   16.4541    2.2994 C   0  0  0  0  0  0  0  0  0  0  0  0
   22.7530   17.6398    1.9852 N   0  0  0  0  0  0  0  0  0  0  0  0
   23.9298   17.3481    1.3614 C   0  0  0  0  0  0  0  0  0  0  0  0
   24.1049   16.0526    1.2522 N   0  0  0  0  0  0  0  0  0  0  0  0
   18.5092   13.8526    2.7537 C   0  0  0  0  0  0  0  0  0  0  0  0
   17.7954   14.9592    2.1813 O   0  0  0  0  0  0  0  0  0  0  0  0
  2  1  1  1
  2  3  1  0
  3  4  1  0
  4  5  1  6
  5  6  1  0
  6  7  1  0
  7  8  1  0
  8  9  2  0
  9 10  1  0
 10 11  1  0
 11 12  2  0
  4 13  1  0
 13 14  1  0
 14  2  1  0
 12  8  1  0
M  END
>  <ref_pdb>  (290) 
A3371a

>  <subsites>  (290) 
1 - Active Site,6 - A0486/A/147/1

>  <HIPPO Compound ID>  (290) 
17161

>  <energy_score>  (290) 
-36.224538

>  <fragmenstein_mode>  (290) 
expansion

>  <scratch_subdir>  (290) 
/opt/xchem-fragalysis-2/maxwin/BulkDock/SCRATCH/511232/C24948-P174

>  <smiles>  (290) 
C[C@@H]1C[C@@H](CNCc2c[nH]cn2)CO1

>  <alias>  (290) 
C24948-P174

>  <ref_mols>  (290) 
A3371a,A0608a

>  <inspiration_score>  (290) 
None

>  <tags>  (290) 
BulkDock Fragalysis export,fragmenstein_placed,openbind_a71ev2a_c1_scaffolds,openbind_a71ev2a_c1_knitwork_pure

>  <fragmenstein_outcome>  (290) 
acceptable

>  <fragmenstein_error>  (290) 


>  <distance_score>  (290) 
0.797814

>  <inchikey>  (290) 
VJYRZHQTAWWYSA-UHFFFAOYSA-N

>  <name>  (290) 
C24948-P174

>  <HIPPO Pose ID>  (290) 
228121

>  <Energy>  (290) 
25.531945

>  <exports>  (290) 
['/opt/xchem-fragalysis-2/maxwin/BulkDock/OUTPUTS/openbind_a71ev2a_c1_knitwork_pure_165VWF8.sdf', '/opt/xchem-fragalysis-2/maxwin/BulkDock/OUTPUTS/openbind_a71ev2a_c1_knitwork_pure_1B07PTU.sdf', '/opt/xchem-fragalysis-2/maxwin/BulkDock/OUTPUTS/openbind_a71ev2a_c1_knitwork_pure_1B07UWE.sdf', '/opt/xchem-fragalysis-2/maxwin/openbind-hippo/a71ev2a/openbind_a71ev2a_c1_scaffold_products.sdf', '/opt/xchem-fragalysis-2/maxwin/openbind-hippo/a71ev2a/cycle_01/bulkdock/openbind_a71ev2a_c1_scaffold_products.sdf', '/opt/xchem-fragalysis-2/maxwin/openbind-hippo/a71ev2a/cycle_01/bulkdock/openbind_a71ev2a_c1_scaffolds.sdf']

>  <fragmenstein_runtime>  (290) 
1.593836

$$$$
C45815-P469
     RDKit          3D

 19 21  0  0  0  0  0  0  0  0999 V2000
    5.5131   14.4206   27.4436 C   0  0  0  0  0  0  0  0  0  0  0  0
    4.7378   13.6056   26.5611 O   0  0  0  0  0  0  0  0  0  0  0  0
    4.9897   13.9271   25.2554 C   0  0  0  0  0  0  0  0  0  0  0  0
    3.9273   14.3781   24.4810 C   0  0  0  0  0  0  0  0  0  0  0  0
    4.1167   14.6605   23.1184 C   0  0  0  0  0  0  0  0  0  0  0  0
    5.3748   14.5130   22.5136 C   0  0  0  0  0  0  0  0  0  0  0  0
    5.6119   14.6569   21.1760 O   0  0  0  0  0  0  0  0  0  0  0  0
    4.4629   14.6261   20.3318 C   0  0  0  0  0  0  0  0  0  0  0  0
    6.4473   14.1388   23.3147 C   0  0  0  0  0  0  0  0  0  0  0  0
    6.2292   13.7598   24.6487 C   0  0  0  0  0  0  0  0  0  0  0  0
    7.3870   13.1985   25.2724 N   0  0  0  0  0  0  0  0  0  0  0  0
    8.2312   12.9256   24.0908 C   0  0  0  0  0  0  0  0  0  0  0  0
    7.9209   14.0027   22.9972 C   0  0  2  0  0  0  0  0  0  0  0  0
    8.6023   15.3119   23.1042 N   0  0  0  0  0  0  0  0  0  0  0  0
    9.8658   15.3691   23.8404 C   0  0  0  0  0  0  0  0  0  0  0  0
   11.0614   14.8099   23.0669 C   0  0  0  0  0  0  0  0  0  0  0  0
   11.2171   15.5196   21.7268 C   0  0  0  0  0  0  0  0  0  0  0  0
    9.9045   15.4797   20.9542 C   0  0  0  0  0  0  0  0  0  0  0  0
    8.7366   15.9922   21.8042 C   0  0  0  0  0  0  0  0  0  0  0  0
  1  2  1  0
  2  3  1  0
  3  4  2  0
  4  5  1  0
  5  6  2  0
  6  7  1  0
  7  8  1  0
  6  9  1  0
  9 10  2  0
 10 11  1  0
 11 12  1  0
 12 13  1  0
 13 14  1  1
 14 15  1  0
 15 16  1  0
 16 17  1  0
 17 18  1  0
 18 19  1  0
 10  3  1  0
 19 14  1  0
 13  9  1  0
M  END
>  <ref_pdb>  (291) 
A4806a

>  <subsites>  (291) 
1 - Active Site

>  <HIPPO Compound ID>  (291) 
45943

>  <energy_score>  (291) 
-38.25025

>  <fragmenstein_mode>  (291) 
expansion

>  <scratch_subdir>  (291) 
/opt/xchem-fragalysis-2/maxwin/BulkDock/SCRATCH/512171/C45815-P469

>  <smiles>  (291) 
COc1ccc(OC)c2c1NC[C@@H]2N1CCCCC1

>  <alias>  (291) 
C45815-P469

>  <ref_mols>  (291) 
A1778a,A4806a

>  <inspiration_score>  (291) 
None

>  <tags>  (291) 
BulkDock Fragalysis export,fragmenstein_placed,openbind_a71ev2a_c1_scaffolds,openbind_a71ev2a_c1_knitwork_pure

>  <fragmenstein_outcome>  (291) 
acceptable

>  <fragmenstein_error>  (291) 


>  <distance_score>  (291) 
0.909174

>  <inchikey>  (291) 
NAKUARJYTXIAKL-UHFFFAOYSA-N

>  <name>  (291) 
C45815-P469

>  <HIPPO Pose ID>  (291) 
229622

>  <Energy>  (291) 
82.729709

>  <exports>  (291) 
['/opt/xchem-fragalysis-2/maxwin/BulkDock/OUTPUTS/openbind_a71ev2a_c1_knitwork_pure_165VWF8.sdf', '/opt/xchem-fragalysis-2/maxwin/BulkDock/OUTPUTS/openbind_a71ev2a_c1_knitwork_pure_1B07PTU.sdf', '/opt/xchem-fragalysis-2/maxwin/BulkDock/OUTPUTS/openbind_a71ev2a_c1_knitwork_pure_1B07UWE.sdf', '/opt/xchem-fragalysis-2/maxwin/openbind-hippo/a71ev2a/openbind_a71ev2a_c1_scaffold_products.sdf', '/opt/xchem-fragalysis-2/maxwin/openbind-hippo/a71ev2a/cycle_01/bulkdock/openbind_a71ev2a_c1_scaffold_products.sdf', '/opt/xchem-fragalysis-2/maxwin/openbind-hippo/a71ev2a/cycle_01/bulkdock/openbind_a71ev2a_c1_scaffolds.sdf']

>  <fragmenstein_runtime>  (291) 
20.419885

$$$$
C95588-P135
     RDKit          3D

 22 23  0  0  0  0  0  0  0  0999 V2000
   11.9906   19.6281   20.8940 C   0  0  0  0  0  0  0  0  0  0  0  0
   13.3094   19.5606   21.1116 C   0  0  0  0  0  0  0  0  0  0  0  0
   14.2276   18.3939   20.8798 C   0  0  0  0  0  0  0  0  0  0  0  0
   13.6006   17.2419   20.2606 N   0  0  0  0  0  0  0  0  0  0  0  0
   12.8434   16.2923   21.0985 C   0  0  0  0  0  0  0  0  0  0  0  0
   12.6248   14.9066   20.4652 C   0  0  1  0  0  0  0  0  0  0  0  0
   11.7019   13.9459   21.0588 N   0  0  0  0  0  0  0  0  0  0  0  0
   11.5160   13.8101   22.4995 C   0  0  0  0  0  0  0  0  0  0  0  0
   10.0521   13.2929   22.7429 C   0  0  1  0  0  0  0  0  0  0  0  0
    9.7533   12.4018   23.9445 C   0  0  0  0  0  0  0  0  0  0  0  0
    9.5734   12.9097   25.2290 C   0  0  0  0  0  0  0  0  0  0  0  0
    8.7122   12.2654   26.1068 C   0  0  0  0  0  0  0  0  0  0  0  0
    8.1697   11.0598   25.7195 C   0  0  0  0  0  0  0  0  0  0  0  0
    8.5213   10.4187   24.5930 N   0  0  0  0  0  0  0  0  0  0  0  0
    9.3064   11.0992   23.7272 C   0  0  0  0  0  0  0  0  0  0  0  0
    9.0298   14.3798   22.5493 N   0  0  0  0  0  0  0  0  0  0  0  0
    7.6817   13.9289   22.2758 C   0  0  0  0  0  0  0  0  0  0  0  0
    8.9333   15.3248   23.6339 C   0  0  0  0  0  0  0  0  0  0  0  0
   12.2724   14.9948   18.9830 C   0  0  0  0  0  0  0  0  0  0  0  0
   13.1445   15.9648   18.2239 C   0  0  0  0  0  0  0  0  0  0  0  0
   13.4849   17.2636   18.8872 C   0  0  0  0  0  0  0  0  0  0  0  0
   13.7852   18.2374   18.1927 O   0  0  0  0  0  0  0  0  0  0  0  0
  1  2  2  0
  2  3  1  0
  3  4  1  0
  4  5  1  0
  5  6  1  0
  6  7  1  1
  7  8  1  0
  9  8  1  1
  9 10  1  0
 10 11  2  0
 11 12  1  0
 12 13  2  0
 13 14  1  0
 14 15  2  0
  9 16  1  0
 16 17  1  0
 16 18  1  0
  6 19  1  0
 19 20  1  0
 20 21  1  0
 21 22  2  0
 21  4  1  0
 15 10  1  0
M  END
>  <ref_pdb>  (292) 
A2629a

>  <subsites>  (292) 
1 - Active Site

>  <HIPPO Compound ID>  (292) 
95588

>  <energy_score>  (292) 
-11.143184

>  <fragmenstein_mode>  (292) 
expansion

>  <scratch_subdir>  (292) 
/opt/xchem-fragalysis-2/maxwin/BulkDock/SCRATCH/512171/C95588-P135

>  <smiles>  (292) 
C=CCN1C[C@@H](NC[C@@H](c2cccnc2)N(C)C)CCC1=O

>  <alias>  (292) 
C95588-P135

>  <ref_mols>  (292) 
A5036a,A2629a

>  <inspiration_score>  (292) 
None

>  <tags>  (292) 
BulkDock Fragalysis export,fragmenstein_placed,openbind_a71ev2a_c1_scaffolds,openbind_a71ev2a_c1_knitwork_pure

>  <fragmenstein_outcome>  (292) 
acceptable

>  <fragmenstein_error>  (292) 


>  <distance_score>  (292) 
0.982107

>  <inchikey>  (292) 
HVSNCLWSDCNDJH-UHFFFAOYSA-N

>  <name>  (292) 
C95588-P135

>  <HIPPO Pose ID>  (292) 
229987

>  <Energy>  (292) 
99.618785

>  <exports>  (292) 
['/opt/xchem-fragalysis-2/maxwin/BulkDock/OUTPUTS/openbind_a71ev2a_c1_knitwork_pure_165VWF8.sdf', '/opt/xchem-fragalysis-2/maxwin/BulkDock/OUTPUTS/openbind_a71ev2a_c1_knitwork_pure_1B07PTU.sdf', '/opt/xchem-fragalysis-2/maxwin/BulkDock/OUTPUTS/openbind_a71ev2a_c1_knitwork_pure_1B07UWE.sdf', '/opt/xchem-fragalysis-2/maxwin/openbind-hippo/a71ev2a/openbind_a71ev2a_c1_scaffold_products.sdf', '/opt/xchem-fragalysis-2/maxwin/openbind-hippo/a71ev2a/cycle_01/bulkdock/openbind_a71ev2a_c1_scaffold_products.sdf', '/opt/xchem-fragalysis-2/maxwin/openbind-hippo/a71ev2a/cycle_01/bulkdock/openbind_a71ev2a_c1_scaffolds.sdf']

>  <fragmenstein_runtime>  (292) 
4.937441

$$$$
C56176-P71
     RDKit          3D

 21 23  0  0  0  0  0  0  0  0999 V2000
    0.1266    6.6195    6.6199 O   0  0  0  0  0  0  0  0  0  0  0  0
    0.1562    7.5896    5.8791 C   0  0  0  0  0  0  0  0  0  0  0  0
   -0.7921    7.8848    4.9212 N   0  0  0  0  0  0  0  0  0  0  0  0
   -0.5857    9.2036    4.3797 C   0  0  0  0  0  0  0  0  0  0  0  0
    0.8320    9.6003    4.8289 C   0  0  2  0  0  0  0  0  0  0  0  0
    1.8144    9.6336    3.6313 C   0  0  0  0  0  0  0  0  0  0  0  0
    2.9482   10.5194    3.8019 O   0  0  0  0  0  0  0  0  0  0  0  0
    2.7128   11.8602    3.6867 C   0  0  0  0  0  0  0  0  0  0  0  0
    1.5923   12.3315    3.5036 O   0  0  0  0  0  0  0  0  0  0  0  0
    3.9167   12.7100    3.8264 C   0  0  0  0  0  0  0  0  0  0  0  0
    3.8697   13.9801    4.3789 C   0  0  0  0  0  0  0  0  0  0  0  0
    5.4397   14.6463    4.5071 S   0  0  0  0  0  0  0  0  0  0  0  0
    6.0686   13.3398    3.5795 C   0  0  0  0  0  0  0  0  0  0  0  0
    7.3999   13.4262    2.9477 C   0  0  0  0  0  0  0  0  0  0  0  0
    7.8431   12.3925    2.1159 C   0  0  0  0  0  0  0  0  0  0  0  0
    9.0033   12.5436    1.3560 C   0  0  0  0  0  0  0  0  0  0  0  0
    9.7118   13.7281    1.4610 C   0  0  0  0  0  0  0  0  0  0  0  0
    9.3680   14.7319    2.2951 N   0  0  0  0  0  0  0  0  0  0  0  0
    8.2203   14.5569    3.0052 C   0  0  0  0  0  0  0  0  0  0  0  0
    5.2041   12.3541    3.3962 N   0  0  0  0  0  0  0  0  0  0  0  0
    1.1268    8.5748    5.8243 N   0  0  0  0  0  0  0  0  0  0  0  0
  1  2  2  0
  2  3  1  0
  3  4  1  0
  4  5  1  0
  5  6  1  6
  6  7  1  0
  7  8  1  0
  8  9  2  0
  8 10  1  0
 10 11  2  0
 11 12  1  0
 12 13  1  0
 13 14  1  0
 14 15  2  0
 15 16  1  0
 16 17  2  0
 17 18  1  0
 18 19  2  0
 13 20  2  0
  5 21  1  0
 21  2  1  0
 20 10  1  0
 19 14  1  0
M  END
>  <ref_pdb>  (293) 
A0428a

>  <subsites>  (293) 
3 - A0541/A/147/1,17 - A1081/A/201/1

>  <HIPPO Compound ID>  (293) 
65555

>  <energy_score>  (293) 
-90.652352

>  <fragmenstein_mode>  (293) 
expansion

>  <scratch_subdir>  (293) 
/opt/xchem-fragalysis-2/maxwin/BulkDock/SCRATCH/512171/C56176-P71

>  <smiles>  (293) 
O=C1NC[C@H](COC(=O)c2csc(-c3cccnc3)n2)N1

>  <alias>  (293) 
C56176-P71

>  <ref_mols>  (293) 
A1081b,A0428a

>  <inspiration_score>  (293) 
None

>  <tags>  (293) 
BulkDock Fragalysis export,fragmenstein_placed,openbind_a71ev2a_c1_scaffolds,openbind_a71ev2a_c1_knitwork_pure

>  <fragmenstein_outcome>  (293) 
acceptable

>  <fragmenstein_error>  (293) 


>  <distance_score>  (293) 
0.996207

>  <inchikey>  (293) 
YJLJMKADNGNFEP-UHFFFAOYSA-N

>  <name>  (293) 
C56176-P71

>  <HIPPO Pose ID>  (293) 
230343

>  <Energy>  (293) 
11.739909

>  <exports>  (293) 
['/opt/xchem-fragalysis-2/maxwin/BulkDock/OUTPUTS/openbind_a71ev2a_c1_knitwork_pure_165VWF8.sdf', '/opt/xchem-fragalysis-2/maxwin/BulkDock/OUTPUTS/openbind_a71ev2a_c1_knitwork_pure_1B07PTU.sdf', '/opt/xchem-fragalysis-2/maxwin/BulkDock/OUTPUTS/openbind_a71ev2a_c1_knitwork_pure_1B07UWE.sdf', '/opt/xchem-fragalysis-2/maxwin/openbind-hippo/a71ev2a/openbind_a71ev2a_c1_scaffold_products.sdf', '/opt/xchem-fragalysis-2/maxwin/openbind-hippo/a71ev2a/cycle_01/bulkdock/openbind_a71ev2a_c1_scaffold_products.sdf', '/opt/xchem-fragalysis-2/maxwin/openbind-hippo/a71ev2a/cycle_01/bulkdock/openbind_a71ev2a_c1_scaffolds.sdf']

>  <fragmenstein_runtime>  (293) 
2.087575

$$$$
C95867-P543
     RDKit          3D

 17 18  0  0  0  0  0  0  0  0999 V2000
    9.4280   10.7231   23.3236 C   0  0  0  0  0  0  0  0  0  0  0  0
    9.0303   11.9465   24.1506 C   0  0  0  0  0  0  0  0  0  0  0  0
    8.2331   11.4184   25.3493 C   0  0  0  0  0  0  0  0  0  0  0  0
   10.3036   12.7663   24.4245 C   0  0  0  0  0  0  0  0  0  0  0  0
    8.0818   12.7389   23.4109 O   0  0  0  0  0  0  0  0  0  0  0  0
    7.6626   13.9010   24.0061 C   0  0  0  0  0  0  0  0  0  0  0  0
    8.2746   14.5077   24.7989 O   0  0  0  0  0  0  0  0  0  0  0  0
    6.3442   14.1714   23.4087 N   0  0  0  0  0  0  0  0  0  0  0  0
    6.4679   15.0150   22.1252 C   0  0  0  0  0  0  0  0  0  0  0  0
    4.9858   15.2493   22.2344 C   0  0  0  0  0  0  0  0  0  0  0  0
    4.1630   14.1389   21.8670 N   0  0  0  0  0  0  0  0  0  0  0  0
    3.3976   14.0808   20.7787 C   0  0  0  0  0  0  0  0  0  0  0  0
    2.8060   15.0497   20.1176 N   0  0  0  0  0  0  0  0  0  0  0  0
    2.1385   14.3879   19.1118 C   0  0  0  0  0  0  0  0  0  0  0  0
    2.3947   13.0438   19.1862 C   0  0  0  0  0  0  0  0  0  0  0  0
    3.1919   12.8328   20.2683 O   0  0  0  0  0  0  0  0  0  0  0  0
    5.3291   15.2541   23.7018 C   0  0  0  0  0  0  0  0  0  0  0  0
  1  2  1  0
  2  3  1  0
  2  4  1  0
  2  5  1  0
  5  6  1  0
  6  7  2  0
  6  8  1  0
  8  9  1  0
  9 10  1  0
 10 11  1  0
 11 12  1  0
 12 13  2  0
 13 14  1  0
 14 15  2  0
 15 16  1  0
 10 17  1  0
 17  8  1  0
 16 12  1  0
M  END
>  <ref_pdb>  (294) 
A4994a

>  <subsites>  (294) 
1 - Active Site

>  <HIPPO Compound ID>  (294) 
53759

>  <energy_score>  (294) 
-6.762718

>  <fragmenstein_mode>  (294) 
expansion

>  <scratch_subdir>  (294) 
/opt/xchem-fragalysis-2/maxwin/BulkDock/SCRATCH/512171/C95867-P543

>  <smiles>  (294) 
CC(C)(C)OC(=O)N1CC(Nc2ncco2)C1

>  <alias>  (294) 
C95867-P543

>  <ref_mols>  (294) 
A3623a,A4994a

>  <inspiration_score>  (294) 
None

>  <tags>  (294) 
BulkDock Fragalysis export,fragmenstein_placed,openbind_a71ev2a_c1_scaffolds,openbind_a71ev2a_c1_knitwork_pure

>  <fragmenstein_outcome>  (294) 
acceptable

>  <fragmenstein_error>  (294) 


>  <distance_score>  (294) 
0.990537

>  <inchikey>  (294) 
XUNSVHLTAIMYCN-UHFFFAOYSA-N

>  <name>  (294) 
C95867-P543

>  <HIPPO Pose ID>  (294) 
230911

>  <Energy>  (294) 
-9.957434

>  <exports>  (294) 
['/opt/xchem-fragalysis-2/maxwin/BulkDock/OUTPUTS/openbind_a71ev2a_c1_knitwork_pure_165VWF8.sdf', '/opt/xchem-fragalysis-2/maxwin/BulkDock/OUTPUTS/openbind_a71ev2a_c1_knitwork_pure_1B07PTU.sdf', '/opt/xchem-fragalysis-2/maxwin/BulkDock/OUTPUTS/openbind_a71ev2a_c1_knitwork_pure_1B07UWE.sdf', '/opt/xchem-fragalysis-2/maxwin/openbind-hippo/a71ev2a/openbind_a71ev2a_c1_scaffold_products.sdf', '/opt/xchem-fragalysis-2/maxwin/openbind-hippo/a71ev2a/cycle_01/bulkdock/openbind_a71ev2a_c1_scaffold_products.sdf', '/opt/xchem-fragalysis-2/maxwin/openbind-hippo/a71ev2a/cycle_01/bulkdock/openbind_a71ev2a_c1_scaffolds.sdf']

>  <fragmenstein_runtime>  (294) 
46.685264

$$$$
C79259-P174
     RDKit          3D

 21 24  0  0  0  0  0  0  0  0999 V2000
    6.1508   11.4648   26.4993 C   0  0  0  0  0  0  0  0  0  0  0  0
    6.6512   12.7611   26.5776 C   0  0  0  0  0  0  0  0  0  0  0  0
    7.7455   13.1503   25.7965 C   0  0  0  0  0  0  0  0  0  0  0  0
    8.3410   12.2233   24.9146 C   0  0  0  0  0  0  0  0  0  0  0  0
    9.4809   12.2671   24.0407 C   0  0  0  0  0  0  0  0  0  0  0  0
   10.4740   13.3938   23.9308 C   0  0  0  0  0  0  0  0  0  0  0  0
   11.0129   13.6885   22.5196 C   0  0  0  0  0  0  0  0  0  0  0  0
   11.7662   14.9596   22.5237 N   0  0  0  0  0  0  0  0  0  0  0  0
   12.0898   15.4566   21.1738 C   0  0  1  0  0  0  0  0  0  0  0  0
   10.8475   15.7459   20.3944 C   0  0  0  0  0  0  0  0  0  0  0  0
   10.6383   15.4437   19.1394 N   0  0  0  0  0  0  0  0  0  0  0  0
    9.8119   16.4305   18.6985 C   0  0  0  0  0  0  0  0  0  0  0  0
    9.3866   17.2361   19.7300 C   0  0  0  0  0  0  0  0  0  0  0  0
    9.9233   16.6646   20.8382 N   0  0  0  0  0  0  0  0  0  0  0  0
   12.8386   16.8029   21.1953 C   0  0  0  0  0  0  0  0  0  0  0  0
   14.2734   17.0591   21.5241 C   0  0  0  0  0  0  0  0  0  0  0  0
   13.8533   17.0175   20.0902 C   0  0  0  0  0  0  0  0  0  0  0  0
    9.4919   11.0603   23.3711 C   0  0  0  0  0  0  0  0  0  0  0  0
    8.4953   10.2637   23.8677 N   0  0  0  0  0  0  0  0  0  0  0  0
    7.7896   10.9426   24.8324 C   0  0  0  0  0  0  0  0  0  0  0  0
    6.7100   10.5299   25.6233 C   0  0  0  0  0  0  0  0  0  0  0  0
  1  2  2  0
  2  3  1  0
  3  4  2  0
  4  5  1  0
  5  6  1  0
  6  7  1  0
  7  8  1  0
  9  8  1  1
  9 10  1  0
 10 11  2  0
 11 12  1  0
 12 13  2  0
 13 14  1  0
  9 15  1  0
 15 16  1  0
 16 17  1  0
  5 18  2  0
 18 19  1  0
 19 20  1  0
 20 21  2  0
 21  1  1  0
 20  4  1  0
 14 10  1  0
 17 15  1  0
M  END
>  <ref_pdb>  (295) 
A3371a

>  <subsites>  (295) 
1 - Active Site

>  <HIPPO Compound ID>  (295) 
47450

>  <energy_score>  (295) 
-20.2763

>  <fragmenstein_mode>  (295) 
expansion

>  <scratch_subdir>  (295) 
/opt/xchem-fragalysis-2/maxwin/BulkDock/SCRATCH/512171/C79259-P174

>  <smiles>  (295) 
c1ccc2c(CCN[C@@H](c3ncc[nH]3)C3CC3)c[nH]c2c1

>  <alias>  (295) 
C79259-P174

>  <ref_mols>  (295) 
A3568a,A3371a

>  <inspiration_score>  (295) 
None

>  <tags>  (295) 
BulkDock Fragalysis export,fragmenstein_placed,openbind_a71ev2a_c1_scaffolds,openbind_a71ev2a_c1_knitwork_pure

>  <fragmenstein_outcome>  (295) 
acceptable

>  <fragmenstein_error>  (295) 


>  <distance_score>  (295) 
0.994857

>  <inchikey>  (295) 
MSQPPJKTFQIHMR-UHFFFAOYSA-N

>  <name>  (295) 
C79259-P174

>  <HIPPO Pose ID>  (295) 
231408

>  <Energy>  (295) 
71.705992

>  <exports>  (295) 
['/opt/xchem-fragalysis-2/maxwin/BulkDock/OUTPUTS/openbind_a71ev2a_c1_knitwork_pure_165VWF8.sdf', '/opt/xchem-fragalysis-2/maxwin/BulkDock/OUTPUTS/openbind_a71ev2a_c1_knitwork_pure_1B07PTU.sdf', '/opt/xchem-fragalysis-2/maxwin/BulkDock/OUTPUTS/openbind_a71ev2a_c1_knitwork_pure_1B07UWE.sdf', '/opt/xchem-fragalysis-2/maxwin/openbind-hippo/a71ev2a/openbind_a71ev2a_c1_scaffold_products.sdf', '/opt/xchem-fragalysis-2/maxwin/openbind-hippo/a71ev2a/cycle_01/bulkdock/openbind_a71ev2a_c1_scaffold_products.sdf', '/opt/xchem-fragalysis-2/maxwin/openbind-hippo/a71ev2a/cycle_01/bulkdock/openbind_a71ev2a_c1_scaffolds.sdf']

>  <fragmenstein_runtime>  (295) 
10.35141

$$$$
C72495-P174
     RDKit          3D

 22 23  0  0  0  0  0  0  0  0999 V2000
   10.2617   14.1043   24.5309 O   0  0  0  0  0  0  0  0  0  0  0  0
   10.1336   13.4794   23.5561 C   0  0  0  0  0  0  0  0  0  0  0  0
   10.4905   13.8198   22.1008 N   0  0  0  0  0  0  0  0  0  0  0  0
   10.9948   15.0407   21.5199 C   0  0  0  0  0  0  0  0  0  0  0  0
   12.5078   14.9845   21.3836 C   0  0  0  0  0  0  0  0  0  0  0  0
   13.0334   16.0701   20.5311 C   0  0  0  0  0  0  0  0  0  0  0  0
   13.6715   17.2382   20.8716 C   0  0  0  0  0  0  0  0  0  0  0  0
   13.9708   17.9110   19.7255 O   0  0  0  0  0  0  0  0  0  0  0  0
   13.5018   17.0909   18.7421 C   0  0  0  0  0  0  0  0  0  0  0  0
   12.9322   15.9860   19.1658 N   0  0  0  0  0  0  0  0  0  0  0  0
    9.4974   12.1273   23.6913 C   0  0  0  0  0  0  0  0  0  0  0  0
    9.7417   11.0569   22.8387 C   0  0  0  0  0  0  0  0  0  0  0  0
    9.1581    9.8238   23.0894 C   0  0  0  0  0  0  0  0  0  0  0  0
    8.3504    9.6047   24.1333 N   0  0  0  0  0  0  0  0  0  0  0  0
    8.1612   10.6416   24.9584 C   0  0  0  0  0  0  0  0  0  0  0  0
    7.5966   10.3262   26.1549 O   0  0  0  0  0  0  0  0  0  0  0  0
    6.1923   10.5380   26.1334 C   0  0  0  0  0  0  0  0  0  0  0  0
    5.8476   11.9579   26.5314 C   0  0  0  0  0  0  0  0  0  0  0  0
    6.0395   12.8259   25.5190 F   0  0  0  0  0  0  0  0  0  0  0  0
    6.6160   12.3852   27.5606 F   0  0  0  0  0  0  0  0  0  0  0  0
    4.5603   12.0327   26.9392 F   0  0  0  0  0  0  0  0  0  0  0  0
    8.6907   11.9046   24.7929 C   0  0  0  0  0  0  0  0  0  0  0  0
  1  2  2  0
  2  3  1  0
  3  4  1  0
  4  5  1  0
  5  6  1  0
  6  7  2  0
  7  8  1  0
  8  9  1  0
  9 10  2  0
  2 11  1  0
 11 12  2  0
 12 13  1  0
 13 14  2  0
 14 15  1  0
 15 16  1  0
 16 17  1  0
 17 18  1  0
 18 19  1  0
 18 20  1  0
 18 21  1  0
 15 22  2  0
 10  6  1  0
 22 11  1  0
M  END
>  <ref_pdb>  (296) 
A3371a

>  <subsites>  (296) 
1 - Active Site

>  <HIPPO Compound ID>  (296) 
72495

>  <energy_score>  (296) 
-4.826719

>  <fragmenstein_mode>  (296) 
expansion

>  <scratch_subdir>  (296) 
/opt/xchem-fragalysis-2/maxwin/BulkDock/SCRATCH/512171/C72495-P174

>  <smiles>  (296) 
O=C(NCCc1cocn1)c1ccnc(OCC(F)(F)F)c1

>  <alias>  (296) 
C72495-P174

>  <ref_mols>  (296) 
A3568a,A3371a

>  <inspiration_score>  (296) 
None

>  <tags>  (296) 
BulkDock Fragalysis export,fragmenstein_placed,openbind_a71ev2a_c1_scaffolds,openbind_a71ev2a_c1_knitwork_pure

>  <fragmenstein_outcome>  (296) 
acceptable

>  <fragmenstein_error>  (296) 


>  <distance_score>  (296) 
0.887057

>  <inchikey>  (296) 
QFWXRMWUAHTJTN-UHFFFAOYSA-N

>  <name>  (296) 
C72495-P174

>  <HIPPO Pose ID>  (296) 
231449

>  <Energy>  (296) 
35.604615

>  <exports>  (296) 
['/opt/xchem-fragalysis-2/maxwin/BulkDock/OUTPUTS/openbind_a71ev2a_c1_knitwork_pure_165VWF8.sdf', '/opt/xchem-fragalysis-2/maxwin/BulkDock/OUTPUTS/openbind_a71ev2a_c1_knitwork_pure_1B07PTU.sdf', '/opt/xchem-fragalysis-2/maxwin/BulkDock/OUTPUTS/openbind_a71ev2a_c1_knitwork_pure_1B07UWE.sdf', '/opt/xchem-fragalysis-2/maxwin/openbind-hippo/a71ev2a/openbind_a71ev2a_c1_scaffold_products.sdf', '/opt/xchem-fragalysis-2/maxwin/openbind-hippo/a71ev2a/cycle_01/bulkdock/openbind_a71ev2a_c1_scaffold_products.sdf', '/opt/xchem-fragalysis-2/maxwin/openbind-hippo/a71ev2a/cycle_01/bulkdock/openbind_a71ev2a_c1_scaffolds.sdf']

>  <fragmenstein_runtime>  (296) 
8.810314

$$$$
C72496-P174
     RDKit          3D

 21 22  0  0  0  0  0  0  0  0999 V2000
    9.0888   14.5421   24.0000 O   0  0  0  0  0  0  0  0  0  0  0  0
    9.4208   13.7728   23.1907 C   0  0  0  0  0  0  0  0  0  0  0  0
   10.1913   13.9795   21.8740 N   0  0  0  0  0  0  0  0  0  0  0  0
   10.7996   15.1644   21.3203 C   0  0  0  0  0  0  0  0  0  0  0  0
   12.3213   15.0578   21.3604 C   0  0  0  0  0  0  0  0  0  0  0  0
   12.9638   16.0845   20.5141 C   0  0  0  0  0  0  0  0  0  0  0  0
   13.6377   17.2308   20.8595 C   0  0  0  0  0  0  0  0  0  0  0  0
   14.0200   17.8626   19.7145 O   0  0  0  0  0  0  0  0  0  0  0  0
   13.5626   17.0402   18.7276 C   0  0  0  0  0  0  0  0  0  0  0  0
   12.9350   15.9659   19.1481 N   0  0  0  0  0  0  0  0  0  0  0  0
    9.0642   12.3377   23.4164 C   0  0  0  0  0  0  0  0  0  0  0  0
    9.8881   11.2983   23.0066 C   0  0  0  0  0  0  0  0  0  0  0  0
    9.5243    9.9883   23.2796 C   0  0  0  0  0  0  0  0  0  0  0  0
    8.4113    9.6722   23.9493 N   0  0  0  0  0  0  0  0  0  0  0  0
    7.6314   10.6921   24.3300 C   0  0  0  0  0  0  0  0  0  0  0  0
    6.4360   10.3101   24.8497 O   0  0  0  0  0  0  0  0  0  0  0  0
    6.4053   10.4357   26.2611 C   0  0  0  0  0  0  0  0  0  0  0  0
    5.8549   11.7826   26.6772 C   0  0  0  0  0  0  0  0  0  0  0  0
    6.8771   12.6753   26.7450 F   0  0  0  0  0  0  0  0  0  0  0  0
    5.3325   11.6902   27.9275 F   0  0  0  0  0  0  0  0  0  0  0  0
    7.8937   12.0274   24.0870 C   0  0  0  0  0  0  0  0  0  0  0  0
  1  2  2  0
  2  3  1  0
  3  4  1  0
  4  5  1  0
  5  6  1  0
  6  7  2  0
  7  8  1  0
  8  9  1  0
  9 10  2  0
  2 11  1  0
 11 12  2  0
 12 13  1  0
 13 14  2  0
 14 15  1  0
 15 16  1  0
 16 17  1  0
 17 18  1  0
 18 19  1  0
 18 20  1  0
 15 21  2  0
 10  6  1  0
 21 11  1  0
M  END
>  <ref_pdb>  (297) 
A3371a

>  <subsites>  (297) 
1 - Active Site

>  <HIPPO Compound ID>  (297) 
52333

>  <energy_score>  (297) 
-10.668583

>  <fragmenstein_mode>  (297) 
expansion

>  <scratch_subdir>  (297) 
/opt/xchem-fragalysis-2/maxwin/BulkDock/SCRATCH/512171/C72496-P174

>  <smiles>  (297) 
O=C(NCCc1cocn1)c1ccnc(OCC(F)F)c1

>  <alias>  (297) 
C72496-P174

>  <ref_mols>  (297) 
A3568a,A3371a

>  <inspiration_score>  (297) 
None

>  <tags>  (297) 
BulkDock Fragalysis export,fragmenstein_placed,openbind_a71ev2a_c1_scaffolds,openbind_a71ev2a_c1_knitwork_pure

>  <fragmenstein_outcome>  (297) 
acceptable

>  <fragmenstein_error>  (297) 


>  <distance_score>  (297) 
0.968897

>  <inchikey>  (297) 
KEJHVZLIZINKME-UHFFFAOYSA-N

>  <name>  (297) 
C72496-P174

>  <HIPPO Pose ID>  (297) 
231451

>  <Energy>  (297) 
26.590592

>  <exports>  (297) 
['/opt/xchem-fragalysis-2/maxwin/BulkDock/OUTPUTS/openbind_a71ev2a_c1_knitwork_pure_165VWF8.sdf', '/opt/xchem-fragalysis-2/maxwin/BulkDock/OUTPUTS/openbind_a71ev2a_c1_knitwork_pure_1B07PTU.sdf', '/opt/xchem-fragalysis-2/maxwin/BulkDock/OUTPUTS/openbind_a71ev2a_c1_knitwork_pure_1B07UWE.sdf', '/opt/xchem-fragalysis-2/maxwin/openbind-hippo/a71ev2a/openbind_a71ev2a_c1_scaffold_products.sdf', '/opt/xchem-fragalysis-2/maxwin/openbind-hippo/a71ev2a/cycle_01/bulkdock/openbind_a71ev2a_c1_scaffold_products.sdf', '/opt/xchem-fragalysis-2/maxwin/openbind-hippo/a71ev2a/cycle_01/bulkdock/openbind_a71ev2a_c1_scaffolds.sdf']

>  <fragmenstein_runtime>  (297) 
3.284577

$$$$
C59884-P322
     RDKit          3D

 18 20  0  0  0  0  0  0  0  0999 V2000
   24.9179   17.8901   23.6754 F   0  0  0  0  0  0  0  0  0  0  0  0
   24.0831   18.8605   23.2078 C   0  0  0  0  0  0  0  0  0  0  0  0
   24.8002   19.9213   22.4167 C   0  0  0  0  0  0  0  0  0  0  0  0
   24.2456   21.2141   22.2783 C   0  0  0  0  0  0  0  0  0  0  0  0
   24.8748   22.2032   21.4992 C   0  0  0  0  0  0  0  0  0  0  0  0
   24.2834   23.5811   21.3668 C   0  0  0  0  0  0  0  0  0  0  0  0
   24.4319   24.4445   22.6345 C   0  0  1  0  0  0  0  0  0  0  0  0
   25.9027   24.7643   22.9492 C   0  0  0  0  0  0  0  0  0  0  0  0
   26.0055   25.7319   24.1252 C   0  0  0  0  0  0  0  0  0  0  0  0
   25.1474   26.9731   23.9007 C   0  0  0  0  0  0  0  0  0  0  0  0
   23.7527   26.6165   23.6404 N   0  0  0  0  0  0  0  0  0  0  0  0
   23.6354   25.7502   22.4658 C   0  0  0  0  0  0  0  0  0  0  0  0
   26.0503   21.8463   20.8603 C   0  0  0  0  0  0  0  0  0  0  0  0
   26.5958   20.5913   20.9948 C   0  0  0  0  0  0  0  0  0  0  0  0
   26.0031   19.6159   21.7674 C   0  0  0  0  0  0  0  0  0  0  0  0
   27.7471   20.4430   20.2875 O   0  0  0  0  0  0  0  0  0  0  0  0
   27.8199   21.7148   19.6205 C   0  0  0  0  0  0  0  0  0  0  0  0
   26.8001   22.6427   20.0475 O   0  0  0  0  0  0  0  0  0  0  0  0
  1  2  1  0
  2  3  1  0
  3  4  2  0
  4  5  1  0
  5  6  1  0
  7  6  1  6
  7  8  1  0
  8  9  1  0
  9 10  1  0
 10 11  1  0
 11 12  1  0
  5 13  2  0
 13 14  1  0
 14 15  2  0
 14 16  1  0
 16 17  1  0
 17 18  1  0
 15  3  1  0
 12  7  1  0
 18 13  1  0
M  END
>  <ref_pdb>  (298) 
A4351a

>  <subsites>  (298) 
1 - Active Site,5 - A3181/A/202/1

>  <HIPPO Compound ID>  (298) 
50277

>  <energy_score>  (298) 
-47.456719

>  <fragmenstein_mode>  (298) 
expansion

>  <scratch_subdir>  (298) 
/opt/xchem-fragalysis-2/maxwin/BulkDock/SCRATCH/512171/C59884-P322

>  <smiles>  (298) 
FCc1cc(C[C@H]2CCCNC2)c2c(c1)OCO2

>  <alias>  (298) 
C59884-P322

>  <ref_mols>  (298) 
A0351b,A4351a

>  <inspiration_score>  (298) 
None

>  <tags>  (298) 
BulkDock Fragalysis export,fragmenstein_placed,openbind_a71ev2a_c1_scaffolds,openbind_a71ev2a_c1_knitwork_pure

>  <fragmenstein_outcome>  (298) 
acceptable

>  <fragmenstein_error>  (298) 


>  <distance_score>  (298) 
0.395998

>  <inchikey>  (298) 
GSWNPYWEZMISHZ-UHFFFAOYSA-N

>  <name>  (298) 
C59884-P322

>  <HIPPO Pose ID>  (298) 
233632

>  <Energy>  (298) 
30.288044

>  <exports>  (298) 
['/opt/xchem-fragalysis-2/maxwin/BulkDock/OUTPUTS/openbind_a71ev2a_c1_knitwork_pure_165VWF8.sdf', '/opt/xchem-fragalysis-2/maxwin/BulkDock/OUTPUTS/openbind_a71ev2a_c1_knitwork_pure_1B07PTU.sdf', '/opt/xchem-fragalysis-2/maxwin/BulkDock/OUTPUTS/openbind_a71ev2a_c1_knitwork_pure_1B07UWE.sdf', '/opt/xchem-fragalysis-2/maxwin/openbind-hippo/a71ev2a/openbind_a71ev2a_c1_scaffold_products.sdf', '/opt/xchem-fragalysis-2/maxwin/openbind-hippo/a71ev2a/cycle_01/bulkdock/openbind_a71ev2a_c1_scaffold_products.sdf', '/opt/xchem-fragalysis-2/maxwin/openbind-hippo/a71ev2a/cycle_01/bulkdock/openbind_a71ev2a_c1_scaffolds.sdf']

>  <fragmenstein_runtime>  (298) 
1.392673

$$$$
C55138-P204
     RDKit          3D

 24 26  0  0  0  0  0  0  0  0999 V2000
   10.1618   14.7700   25.2075 O   0  0  0  0  0  0  0  0  0  0  0  0
    9.2885   14.1615   24.6010 C   0  0  0  0  0  0  0  0  0  0  0  0
    9.5903   13.5048   23.4641 O   0  0  0  0  0  0  0  0  0  0  0  0
    7.8044   14.1017   24.9852 C   0  0  2  0  0  0  0  0  0  0  0  0
    6.9032   14.8979   24.1275 N   0  0  0  0  0  0  0  0  0  0  0  0
    6.9483   14.7406   22.4605 S   0  0  0  0  0  0  0  0  0  0  0  0
    8.0697   15.5404   22.0271 O   0  0  0  0  0  0  0  0  0  0  0  0
    6.8089   13.3627   22.0584 O   0  0  0  0  0  0  0  0  0  0  0  0
    5.4497   15.6250   22.1282 C   0  0  0  0  0  0  0  0  0  0  0  0
    4.1748   14.8086   22.0463 C   0  0  0  0  0  0  0  0  0  0  0  0
    4.0345   14.0547   20.7195 C   0  0  0  0  0  0  0  0  0  0  0  0
    2.6292   13.9432   20.3331 N   0  0  0  0  0  0  0  0  0  0  0  0
    1.8533   13.0496   21.1956 C   0  0  0  0  0  0  0  0  0  0  0  0
    0.5639   12.9178   20.4066 C   0  0  0  0  0  0  0  0  0  0  0  0
    1.0049   12.9495   18.9476 C   0  0  0  0  0  0  0  0  0  0  0  0
    2.4595   13.4049   18.9798 C   0  0  0  0  0  0  0  0  0  0  0  0
    7.5994   14.7414   26.4034 C   0  0  0  0  0  0  0  0  0  0  0  0
    6.3217   14.1084   26.9757 C   0  0  0  0  0  0  0  0  0  0  0  0
    6.4159   12.7341   26.3964 C   0  0  0  0  0  0  0  0  0  0  0  0
    5.7952   11.5868   26.8572 C   0  0  0  0  0  0  0  0  0  0  0  0
    6.0930   10.3812   26.2258 C   0  0  0  0  0  0  0  0  0  0  0  0
    6.9833   10.3373   25.1453 C   0  0  0  0  0  0  0  0  0  0  0  0
    7.5637   11.5081   24.6571 C   0  0  0  0  0  0  0  0  0  0  0  0
    7.2804   12.7111   25.2891 C   0  0  0  0  0  0  0  0  0  0  0  0
  1  2  2  0
  2  3  1  0
  2  4  1  0
  4  5  1  6
  5  6  1  0
  6  7  2  0
  6  8  2  0
  6  9  1  0
  9 10  1  0
 10 11  1  0
 11 12  1  0
 12 13  1  0
 13 14  1  0
 14 15  1  0
 15 16  1  0
  4 17  1  0
 17 18  1  0
 18 19  1  0
 19 20  2  0
 20 21  1  0
 21 22  2  0
 22 23  1  0
 23 24  2  0
 24  4  1  0
 16 12  1  0
 24 19  1  0
M  END
>  <ref_pdb>  (299) 
A3685a

>  <subsites>  (299) 
1 - Active Site

>  <HIPPO Compound ID>  (299) 
28114

>  <energy_score>  (299) 
-51.517249

>  <fragmenstein_mode>  (299) 
expansion

>  <scratch_subdir>  (299) 
/opt/xchem-fragalysis-2/maxwin/BulkDock/SCRATCH/512171/C55138-P204

>  <smiles>  (299) 
O=C(O)[C@]1(NS(=O)(=O)CCCN2CCCC2)CCc2ccccc21

>  <alias>  (299) 
C55138-P204

>  <ref_mols>  (299) 
A3685a,A0719a

>  <inspiration_score>  (299) 
None

>  <tags>  (299) 
BulkDock Fragalysis export,fragmenstein_placed,openbind_a71ev2a_c1_scaffolds,openbind_a71ev2a_c1_knitwork_pure

>  <fragmenstein_outcome>  (299) 
acceptable

>  <fragmenstein_error>  (299) 


>  <distance_score>  (299) 
0.967047

>  <inchikey>  (299) 
IUKQROOWIYQEAX-UHFFFAOYSA-N

>  <name>  (299) 
C55138-P204

>  <HIPPO Pose ID>  (299) 
233876

>  <Energy>  (299) 
-22.270929

>  <exports>  (299) 
['/opt/xchem-fragalysis-2/maxwin/BulkDock/OUTPUTS/openbind_a71ev2a_c1_knitwork_pure_165VWF8.sdf', '/opt/xchem-fragalysis-2/maxwin/BulkDock/OUTPUTS/openbind_a71ev2a_c1_knitwork_pure_1B07PTU.sdf', '/opt/xchem-fragalysis-2/maxwin/BulkDock/OUTPUTS/openbind_a71ev2a_c1_knitwork_pure_1B07UWE.sdf', '/opt/xchem-fragalysis-2/maxwin/openbind-hippo/a71ev2a/openbind_a71ev2a_c1_scaffold_products.sdf', '/opt/xchem-fragalysis-2/maxwin/openbind-hippo/a71ev2a/cycle_01/bulkdock/openbind_a71ev2a_c1_scaffold_products.sdf', '/opt/xchem-fragalysis-2/maxwin/openbind-hippo/a71ev2a/cycle_01/bulkdock/openbind_a71ev2a_c1_scaffolds.sdf']

>  <fragmenstein_runtime>  (299) 
126.550989

$$$$
C45792-P497
     RDKit          3D

 21 23  0  0  0  0  0  0  0  0999 V2000
    4.0033   12.7607   26.7537 N   0  0  0  0  0  0  0  0  0  0  0  0
    5.2128   12.9727   27.5430 C   0  0  0  0  0  0  0  0  0  0  0  0
    6.3362   12.0083   27.1667 C   0  0  0  0  0  0  0  0  0  0  0  0
    6.9308   12.3341   25.8127 C   0  0  1  0  0  0  0  0  0  0  0  0
    7.7639   13.6211   25.7735 C   0  0  0  0  0  0  0  0  0  0  0  0
    8.7392   13.4289   24.6410 N   0  0  0  0  0  0  0  0  0  0  0  0
    8.2719   14.2628   23.2127 S   0  0  0  0  0  0  0  0  0  0  0  0
    7.4734   13.3669   22.3997 O   0  0  0  0  0  0  0  0  0  0  0  0
    7.7648   15.5564   23.6239 O   0  0  0  0  0  0  0  0  0  0  0  0
    9.8413   14.5384   22.4228 C   0  0  2  0  0  0  0  0  0  0  0  0
   10.8867   15.1027   23.3817 C   0  0  0  0  0  0  0  0  0  0  0  0
   12.1883   15.2702   22.6204 C   0  0  0  0  0  0  0  0  0  0  0  0
   12.0043   16.1345   21.3778 C   0  0  0  0  0  0  0  0  0  0  0  0
   10.9530   15.6212   20.4943 N   0  0  0  0  0  0  0  0  0  0  0  0
    9.6812   15.4653   21.2212 C   0  0  0  0  0  0  0  0  0  0  0  0
    8.8640   12.0013   24.5030 C   0  0  0  0  0  0  0  0  0  0  0  0
    9.7604   11.3001   23.7265 C   0  0  0  0  0  0  0  0  0  0  0  0
    9.6787    9.9096   23.7254 C   0  0  0  0  0  0  0  0  0  0  0  0
    8.7452    9.2547   24.5265 C   0  0  0  0  0  0  0  0  0  0  0  0
    7.8419    9.9635   25.3080 C   0  0  0  0  0  0  0  0  0  0  0  0
    7.9034   11.3421   25.2676 C   0  0  0  0  0  0  0  0  0  0  0  0
  1  2  1  0
  2  3  1  0
  4  3  1  1
  4  5  1  0
  5  6  1  0
  6  7  1  0
  7  8  2  0
  7  9  2  0
 10  7  1  1
 10 11  1  0
 11 12  1  0
 12 13  1  0
 13 14  1  0
 14 15  1  0
  6 16  1  0
 16 17  2  0
 17 18  1  0
 18 19  2  0
 19 20  1  0
 20 21  2  0
 21  4  1  0
 15 10  1  0
 21 16  1  0
M  END
>  <ref_pdb>  (300) 
A4877b

>  <subsites>  (300) 
1 - Active Site

>  <HIPPO Compound ID>  (300) 
45749

>  <energy_score>  (300) 
-39.544905

>  <fragmenstein_mode>  (300) 
expansion

>  <scratch_subdir>  (300) 
/opt/xchem-fragalysis-2/maxwin/BulkDock/SCRATCH/512171/C45792-P497

>  <smiles>  (300) 
NCC[C@H]1CN(S(=O)(=O)[C@@H]2CCCNC2)c2ccccc21

>  <alias>  (300) 
C45792-P497

>  <ref_mols>  (300) 
A4877b,A1778a

>  <inspiration_score>  (300) 
None

>  <tags>  (300) 
BulkDock Fragalysis export,fragmenstein_placed,openbind_a71ev2a_c1_scaffolds,openbind_a71ev2a_c1_knitwork_pure

>  <fragmenstein_outcome>  (300) 
acceptable

>  <fragmenstein_error>  (300) 


>  <distance_score>  (300) 
0.860016

>  <inchikey>  (300) 
CFQKQNUEMBXROS-UHFFFAOYSA-N

>  <name>  (300) 
C45792-P497

>  <HIPPO Pose ID>  (300) 
233939

>  <Energy>  (300) 
-1.639078

>  <exports>  (300) 
['/opt/xchem-fragalysis-2/maxwin/BulkDock/OUTPUTS/openbind_a71ev2a_c1_knitwork_pure_165VWF8.sdf', '/opt/xchem-fragalysis-2/maxwin/BulkDock/OUTPUTS/openbind_a71ev2a_c1_knitwork_pure_1B07PTU.sdf', '/opt/xchem-fragalysis-2/maxwin/BulkDock/OUTPUTS/openbind_a71ev2a_c1_knitwork_pure_1B07UWE.sdf', '/opt/xchem-fragalysis-2/maxwin/openbind-hippo/a71ev2a/openbind_a71ev2a_c1_scaffold_products.sdf', '/opt/xchem-fragalysis-2/maxwin/openbind-hippo/a71ev2a/cycle_01/bulkdock/openbind_a71ev2a_c1_scaffold_products.sdf', '/opt/xchem-fragalysis-2/maxwin/openbind-hippo/a71ev2a/cycle_01/bulkdock/openbind_a71ev2a_c1_scaffolds.sdf']

>  <fragmenstein_runtime>  (300) 
4.750561

$$$$
C19322-P22
     RDKit          3D

 13 13  0  0  0  0  0  0  0  0999 V2000
    6.9715   16.1076   22.0110 N   0  0  0  0  0  0  0  0  0  0  0  0
    7.8004   14.8876   22.7680 S   0  0  0  0  0  0  0  0  0  0  0  0
    9.1516   15.3850   22.7499 O   0  0  0  0  0  0  0  0  0  0  0  0
    7.4135   13.6295   22.1614 O   0  0  0  0  0  0  0  0  0  0  0  0
    7.0645   15.0539   24.3745 C   0  0  0  0  0  0  0  0  0  0  0  0
    7.7986   14.4729   25.5591 C   0  0  0  0  0  0  0  0  0  0  0  0
    7.7886   12.9554   25.6352 C   0  0  0  0  0  0  0  0  0  0  0  0
    8.6402   12.2575   24.7093 N   0  0  0  0  0  0  0  0  0  0  0  0
    8.5171   10.8414   24.5502 C   0  0  0  0  0  0  0  0  0  0  0  0
    9.6299   10.4202   23.6186 C   0  0  0  0  0  0  0  0  0  0  0  0
   10.4299   11.6792   23.3385 C   0  0  0  0  0  0  0  0  0  0  0  0
    9.8731   12.6974   24.2690 C   0  0  0  0  0  0  0  0  0  0  0  0
   10.4324   13.7364   24.5607 O   0  0  0  0  0  0  0  0  0  0  0  0
  1  2  1  0
  2  3  2  0
  2  4  2  0
  2  5  1  0
  5  6  1  0
  6  7  1  0
  7  8  1  0
  8  9  1  0
  9 10  1  0
 10 11  1  0
 11 12  1  0
 12 13  2  0
 12  8  1  0
M  END
>  <ref_pdb>  (301) 
A0528a

>  <subsites>  (301) 
1 - Active Site

>  <HIPPO Compound ID>  (301) 
45909

>  <energy_score>  (301) 
-15.364017

>  <fragmenstein_mode>  (301) 
expansion

>  <scratch_subdir>  (301) 
/opt/xchem-fragalysis-2/maxwin/BulkDock/SCRATCH/512171/C19322-P22

>  <smiles>  (301) 
NS(=O)(=O)CCCN1CCCC1=O

>  <alias>  (301) 
C19322-P22

>  <ref_mols>  (301) 
A0719a,A0528a

>  <inspiration_score>  (301) 
None

>  <tags>  (301) 
BulkDock Fragalysis export,fragmenstein_placed,openbind_a71ev2a_c1_scaffolds,openbind_a71ev2a_c1_knitwork_pure

>  <fragmenstein_outcome>  (301) 
acceptable

>  <fragmenstein_error>  (301) 


>  <distance_score>  (301) 
0.844342

>  <inchikey>  (301) 
DMMWSHAZVFYQCP-UHFFFAOYSA-N

>  <name>  (301) 
C19322-P22

>  <HIPPO Pose ID>  (301) 
234229

>  <Energy>  (301) 
-96.438874

>  <exports>  (301) 
['/opt/xchem-fragalysis-2/maxwin/BulkDock/OUTPUTS/openbind_a71ev2a_c1_knitwork_pure_165VWF8.sdf', '/opt/xchem-fragalysis-2/maxwin/BulkDock/OUTPUTS/openbind_a71ev2a_c1_knitwork_pure_1B07PTU.sdf', '/opt/xchem-fragalysis-2/maxwin/BulkDock/OUTPUTS/openbind_a71ev2a_c1_knitwork_pure_1B07UWE.sdf', '/opt/xchem-fragalysis-2/maxwin/openbind-hippo/a71ev2a/openbind_a71ev2a_c1_scaffold_products.sdf', '/opt/xchem-fragalysis-2/maxwin/openbind-hippo/a71ev2a/cycle_01/bulkdock/openbind_a71ev2a_c1_scaffold_products.sdf', '/opt/xchem-fragalysis-2/maxwin/openbind-hippo/a71ev2a/cycle_01/bulkdock/openbind_a71ev2a_c1_scaffolds.sdf']

>  <fragmenstein_runtime>  (301) 
1.179804

$$$$
C76028-P273
     RDKit          3D

 20 22  0  0  0  0  0  0  0  0999 V2000
   11.1094   14.6557   25.0003 O   0  0  0  0  0  0  0  0  0  0  0  0
   11.1089   14.8638   23.7843 C   0  0  0  0  0  0  0  0  0  0  0  0
   12.4575   14.9699   23.1194 C   0  0  0  0  0  0  0  0  0  0  0  0
   12.4525   15.8330   21.8821 C   0  0  0  0  0  0  0  0  0  0  0  0
   11.5250   15.1694   20.9020 C   0  0  0  0  0  0  0  0  0  0  0  0
   10.1254   15.1427   21.4850 C   0  0  0  0  0  0  0  0  0  0  0  0
    9.9907   14.9185   22.9471 N   0  0  0  0  0  0  0  0  0  0  0  0
    8.6334   14.8657   23.4561 C   0  0  0  0  0  0  0  0  0  0  0  0
    8.3077   14.7707   24.8121 C   0  0  0  0  0  0  0  0  0  0  0  0
    6.9770   14.6639   25.2360 C   0  0  0  0  0  0  0  0  0  0  0  0
    5.9359   14.6601   24.3103 C   0  0  0  0  0  0  0  0  0  0  0  0
    6.2101   14.8110   22.9591 C   0  0  0  0  0  0  0  0  0  0  0  0
    5.2792   14.7532   21.9366 N   0  0  0  0  0  0  0  0  0  0  0  0
    3.8577   14.5924   22.1596 C   0  0  0  0  0  0  0  0  0  0  0  0
    3.1377   14.2394   20.9058 C   0  0  0  0  0  0  0  0  0  0  0  0
    3.1118   13.0272   20.2545 C   0  0  0  0  0  0  0  0  0  0  0  0
    2.3824   13.1732   19.1175 O   0  0  0  0  0  0  0  0  0  0  0  0
    2.0055   14.4812   19.1411 C   0  0  0  0  0  0  0  0  0  0  0  0
    2.4400   15.1749   20.1730 N   0  0  0  0  0  0  0  0  0  0  0  0
    7.5510   14.9059   22.5636 C   0  0  0  0  0  0  0  0  0  0  0  0
  1  2  2  0
  2  3  1  0
  3  4  1  0
  4  5  1  0
  5  6  1  0
  6  7  1  0
  7  8  1  0
  8  9  2  0
  9 10  1  0
 10 11  2  0
 11 12  1  0
 12 13  1  0
 13 14  1  0
 14 15  1  0
 15 16  2  0
 16 17  1  0
 17 18  1  0
 18 19  2  0
 12 20  2  0
  7  2  1  0
 20  8  1  0
 19 15  1  0
M  END
>  <ref_pdb>  (302) 
A4029a

>  <subsites>  (302) 
1 - Active Site

>  <HIPPO Compound ID>  (302) 
46644

>  <energy_score>  (302) 
-28.340751

>  <fragmenstein_mode>  (302) 
expansion

>  <scratch_subdir>  (302) 
/opt/xchem-fragalysis-2/maxwin/BulkDock/SCRATCH/512171/C76028-P273

>  <smiles>  (302) 
O=C1CCCCN1c1cccc(NCc2cocn2)c1

>  <alias>  (302) 
C76028-P273

>  <ref_mols>  (302) 
A3623a,A4029a

>  <inspiration_score>  (302) 
None

>  <tags>  (302) 
BulkDock Fragalysis export,fragmenstein_placed,openbind_a71ev2a_c1_scaffolds,openbind_a71ev2a_c1_knitwork_pure

>  <fragmenstein_outcome>  (302) 
acceptable

>  <fragmenstein_error>  (302) 


>  <distance_score>  (302) 
0.737605

>  <inchikey>  (302) 
ZMLNPERFMPNMTQ-UHFFFAOYSA-N

>  <name>  (302) 
C76028-P273

>  <HIPPO Pose ID>  (302) 
235861

>  <Energy>  (302) 
38.334812

>  <exports>  (302) 
['/opt/xchem-fragalysis-2/maxwin/BulkDock/OUTPUTS/openbind_a71ev2a_c1_knitwork_pure_165VWF8.sdf', '/opt/xchem-fragalysis-2/maxwin/BulkDock/OUTPUTS/openbind_a71ev2a_c1_knitwork_pure_1B07PTU.sdf', '/opt/xchem-fragalysis-2/maxwin/BulkDock/OUTPUTS/openbind_a71ev2a_c1_knitwork_pure_1B07UWE.sdf', '/opt/xchem-fragalysis-2/maxwin/openbind-hippo/a71ev2a/openbind_a71ev2a_c1_scaffold_products.sdf', '/opt/xchem-fragalysis-2/maxwin/openbind-hippo/a71ev2a/cycle_01/bulkdock/openbind_a71ev2a_c1_scaffold_products.sdf', '/opt/xchem-fragalysis-2/maxwin/openbind-hippo/a71ev2a/cycle_01/bulkdock/openbind_a71ev2a_c1_scaffolds.sdf']

>  <fragmenstein_runtime>  (302) 
38.755784

$$$$
C51396-P274
     RDKit          3D

 18 18  0  0  0  0  0  0  0  0999 V2000
    8.3553   16.1882   21.8558 C   0  0  0  0  0  0  0  0  0  0  0  0
    9.7997   15.9420   22.2853 C   0  0  1  0  0  0  0  0  0  0  0  0
    9.8909   15.0941   23.5556 C   0  0  0  0  0  0  0  0  0  0  0  0
    9.3748   13.6758   23.3882 C   0  0  0  0  0  0  0  0  0  0  0  0
    9.7603   12.9745   22.5340 O   0  0  0  0  0  0  0  0  0  0  0  0
    8.3776   13.3958   24.5459 N   0  0  0  0  0  0  0  0  0  0  0  0
    7.7421   12.2141   24.9302 C   0  0  0  0  0  0  0  0  0  0  0  0
    8.1979   11.0070   24.4009 C   0  0  0  0  0  0  0  0  0  0  0  0
    7.6422    9.8276   24.8592 C   0  0  0  0  0  0  0  0  0  0  0  0
    6.6431    9.7701   25.7696 N   0  0  0  0  0  0  0  0  0  0  0  0
    6.1855   10.9557   26.2356 C   0  0  0  0  0  0  0  0  0  0  0  0
    6.7012   12.1897   25.8617 C   0  0  0  0  0  0  0  0  0  0  0  0
    6.1556   13.3718   26.4412 C   0  0  0  0  0  0  0  0  0  0  0  0
    5.7381   14.3222   26.9615 N   0  0  0  0  0  0  0  0  0  0  0  0
   10.6671   15.5091   21.1123 C   0  0  0  0  0  0  0  0  0  0  0  0
   11.8701   15.0872   21.5468 F   0  0  0  0  0  0  0  0  0  0  0  0
   10.0955   14.5711   20.3531 F   0  0  0  0  0  0  0  0  0  0  0  0
   10.8787   16.5850   20.3190 F   0  0  0  0  0  0  0  0  0  0  0  0
  2  1  1  6
  2  3  1  0
  3  4  1  0
  4  5  2  0
  4  6  1  0
  6  7  1  0
  7  8  2  0
  8  9  1  0
  9 10  2  0
 10 11  1  0
 11 12  2  0
 12 13  1  0
 13 14  3  0
  2 15  1  0
 15 16  1  0
 15 17  1  0
 15 18  1  0
 12  7  1  0
M  END
>  <ref_pdb>  (303) 
A4031a

>  <subsites>  (303) 
1 - Active Site

>  <HIPPO Compound ID>  (303) 
50954

>  <energy_score>  (303) 
-16.662124

>  <fragmenstein_mode>  (303) 
expansion

>  <scratch_subdir>  (303) 
/opt/xchem-fragalysis-2/maxwin/BulkDock/SCRATCH/512171/C51396-P274

>  <smiles>  (303) 
C[C@@H](CC(=O)Nc1ccncc1C#N)C(F)(F)F

>  <alias>  (303) 
C51396-P274

>  <ref_mols>  (303) 
A1445a,A4031a

>  <inspiration_score>  (303) 
None

>  <tags>  (303) 
BulkDock Fragalysis export,fragmenstein_placed,openbind_a71ev2a_c1_scaffolds,openbind_a71ev2a_c1_knitwork_pure

>  <fragmenstein_outcome>  (303) 
acceptable

>  <fragmenstein_error>  (303) 


>  <distance_score>  (303) 
0.849529

>  <inchikey>  (303) 
BLIHSGRIXMRDOE-UHFFFAOYSA-N

>  <name>  (303) 
C51396-P274

>  <HIPPO Pose ID>  (303) 
237118

>  <Energy>  (303) 
20.643129

>  <exports>  (303) 
['/opt/xchem-fragalysis-2/maxwin/BulkDock/OUTPUTS/openbind_a71ev2a_c1_knitwork_pure_165VWF8.sdf', '/opt/xchem-fragalysis-2/maxwin/BulkDock/OUTPUTS/openbind_a71ev2a_c1_knitwork_pure_1B07PTU.sdf', '/opt/xchem-fragalysis-2/maxwin/BulkDock/OUTPUTS/openbind_a71ev2a_c1_knitwork_pure_1B07UWE.sdf', '/opt/xchem-fragalysis-2/maxwin/openbind-hippo/a71ev2a/openbind_a71ev2a_c1_scaffold_products.sdf', '/opt/xchem-fragalysis-2/maxwin/openbind-hippo/a71ev2a/cycle_01/bulkdock/openbind_a71ev2a_c1_scaffold_products.sdf', '/opt/xchem-fragalysis-2/maxwin/openbind-hippo/a71ev2a/cycle_01/bulkdock/openbind_a71ev2a_c1_scaffolds.sdf']

>  <fragmenstein_runtime>  (303) 
2.817947

$$$$
C51403-P274
     RDKit          3D

 21 21  0  0  0  0  0  0  0  0999 V2000
    7.9953   15.5218   22.0315 C   0  0  0  0  0  0  0  0  0  0  0  0
    9.4627   15.2952   22.3828 C   0  0  0  0  0  0  0  0  0  0  0  0
   10.2632   14.9034   21.1446 C   0  0  0  0  0  0  0  0  0  0  0  0
    9.6027   14.2679   23.5155 C   0  0  0  0  0  0  0  0  0  0  0  0
    9.0896   12.9845   23.1409 O   0  0  0  0  0  0  0  0  0  0  0  0
    8.3297   12.3708   24.1082 C   0  0  0  0  0  0  0  0  0  0  0  0
    8.3665   10.9867   24.1833 C   0  0  0  0  0  0  0  0  0  0  0  0
    7.5199   10.3371   25.0885 C   0  0  0  0  0  0  0  0  0  0  0  0
    6.6405   11.0882   25.8600 C   0  0  0  0  0  0  0  0  0  0  0  0
    5.7945   10.4805   26.7876 N   0  0  0  0  0  0  0  0  0  0  0  0
    4.7024   11.0953   27.7159 C   0  0  0  0  0  0  0  0  0  0  0  0
    4.2971   12.1881   27.7856 O   0  0  0  0  0  0  0  0  0  0  0  0
    4.2742    9.9831   28.6689 C   0  0  0  0  0  0  0  0  0  0  0  0
    3.3909   10.4149   29.8578 C   0  0  1  0  0  0  0  0  0  0  0  0
    3.8770   11.6784   30.5733 C   0  0  0  0  0  0  0  0  0  0  0  0
    1.9128   10.5267   29.5190 C   0  0  0  0  0  0  0  0  0  0  0  0
    1.1932   10.7089   30.6500 F   0  0  0  0  0  0  0  0  0  0  0  0
    1.4761    9.3825   28.9415 F   0  0  0  0  0  0  0  0  0  0  0  0
    1.6325   11.5336   28.6759 F   0  0  0  0  0  0  0  0  0  0  0  0
    6.6592   12.4678   25.6862 C   0  0  0  0  0  0  0  0  0  0  0  0
    7.5002   13.1210   24.8489 N   0  0  0  0  0  0  0  0  0  0  0  0
  1  2  1  0
  2  3  1  0
  2  4  1  0
  4  5  1  0
  5  6  1  0
  6  7  2  0
  7  8  1  0
  8  9  2  0
  9 10  1  0
 10 11  1  0
 11 12  2  0
 11 13  1  0
 13 14  1  0
 14 15  1  6
 14 16  1  0
 16 17  1  0
 16 18  1  0
 16 19  1  0
  9 20  1  0
 20 21  2  0
 21  6  1  0
M  END
>  <ref_pdb>  (304) 
A4031a

>  <subsites>  (304) 
1 - Active Site

>  <HIPPO Compound ID>  (304) 
55684

>  <energy_score>  (304) 
-31.80852

>  <fragmenstein_mode>  (304) 
expansion

>  <scratch_subdir>  (304) 
/opt/xchem-fragalysis-2/maxwin/BulkDock/SCRATCH/512171/C51403-P274

>  <smiles>  (304) 
CC(C)COc1ccc(NC(=O)C[C@@H](C)C(F)(F)F)cn1

>  <alias>  (304) 
C51403-P274

>  <ref_mols>  (304) 
A1445a,A4031a

>  <inspiration_score>  (304) 
None

>  <tags>  (304) 
BulkDock Fragalysis export,fragmenstein_placed,openbind_a71ev2a_c1_scaffolds,openbind_a71ev2a_c1_knitwork_pure

>  <fragmenstein_outcome>  (304) 
acceptable

>  <fragmenstein_error>  (304) 


>  <distance_score>  (304) 
0.872055

>  <inchikey>  (304) 
XPJXWZTUMKSLEF-UHFFFAOYSA-N

>  <name>  (304) 
C51403-P274

>  <HIPPO Pose ID>  (304) 
237122

>  <Energy>  (304) 
13.530247

>  <exports>  (304) 
['/opt/xchem-fragalysis-2/maxwin/BulkDock/OUTPUTS/openbind_a71ev2a_c1_knitwork_pure_165VWF8.sdf', '/opt/xchem-fragalysis-2/maxwin/BulkDock/OUTPUTS/openbind_a71ev2a_c1_knitwork_pure_1B07PTU.sdf', '/opt/xchem-fragalysis-2/maxwin/BulkDock/OUTPUTS/openbind_a71ev2a_c1_knitwork_pure_1B07UWE.sdf', '/opt/xchem-fragalysis-2/maxwin/openbind-hippo/a71ev2a/openbind_a71ev2a_c1_scaffold_products.sdf', '/opt/xchem-fragalysis-2/maxwin/openbind-hippo/a71ev2a/cycle_01/bulkdock/openbind_a71ev2a_c1_scaffold_products.sdf', '/opt/xchem-fragalysis-2/maxwin/openbind-hippo/a71ev2a/cycle_01/bulkdock/openbind_a71ev2a_c1_scaffolds.sdf']

>  <fragmenstein_runtime>  (304) 
8.914123

$$$$
C45982-P244
     RDKit          3D

 23 26  0  0  0  0  0  0  0  0999 V2000
    7.7734   13.2613   22.6469 O   0  0  0  0  0  0  0  0  0  0  0  0
    8.9050   13.4519   23.5372 S   0  0  0  0  0  0  0  0  0  0  0  0
   10.0658   12.5858   23.4836 O   0  0  0  0  0  0  0  0  0  0  0  0
    9.3963   15.1860   23.4836 C   0  0  1  0  0  0  0  0  0  0  0  0
   10.5543   15.4915   24.4426 C   0  0  0  0  0  0  0  0  0  0  0  0
   11.9102   15.1018   23.8608 C   0  0  0  0  0  0  0  0  0  0  0  0
   12.0794   15.7192   22.4848 C   0  0  0  0  0  0  0  0  0  0  0  0
   11.0052   15.2213   21.6437 N   0  0  0  0  0  0  0  0  0  0  0  0
   11.2814   15.3227   20.3360 C   0  0  0  0  0  0  0  0  0  0  0  0
   11.8436   14.4302   19.5658 N   0  0  0  0  0  0  0  0  0  0  0  0
   11.9684   15.0535   18.3805 C   0  0  0  0  0  0  0  0  0  0  0  0
   11.6116   16.3612   18.5173 C   0  0  0  0  0  0  0  0  0  0  0  0
   11.1021   16.5435   19.7558 O   0  0  0  0  0  0  0  0  0  0  0  0
    9.6699   15.6250   22.0491 C   0  0  0  0  0  0  0  0  0  0  0  0
    8.3017   13.3275   25.1359 N   0  0  0  0  0  0  0  0  0  0  0  0
    7.2906   14.3478   25.5662 C   0  0  0  0  0  0  0  0  0  0  0  0
    6.4638   13.6921   26.6784 C   0  0  0  0  0  0  0  0  0  0  0  0
    6.6553   12.2476   26.3697 C   0  0  0  0  0  0  0  0  0  0  0  0
    5.9423   11.1778   26.8813 C   0  0  0  0  0  0  0  0  0  0  0  0
    6.2954    9.8989   26.4631 C   0  0  0  0  0  0  0  0  0  0  0  0
    7.3655    9.7147   25.5772 C   0  0  0  0  0  0  0  0  0  0  0  0
    8.1016   10.7950   25.0946 C   0  0  0  0  0  0  0  0  0  0  0  0
    7.7082   12.0624   25.4717 C   0  0  0  0  0  0  0  0  0  0  0  0
  1  2  2  0
  2  3  2  0
  4  2  1  6
  4  5  1  0
  5  6  1  0
  6  7  1  0
  7  8  1  0
  8  9  1  0
  9 10  2  0
 10 11  1  0
 11 12  2  0
 12 13  1  0
  8 14  1  0
  2 15  1  0
 15 16  1  0
 16 17  1  0
 17 18  1  0
 18 19  2  0
 19 20  1  0
 20 21  2  0
 21 22  1  0
 22 23  2  0
 14  4  1  0
 23 15  1  0
 13  9  1  0
 23 18  1  0
M  END
>  <ref_pdb>  (305) 
A3940a

>  <subsites>  (305) 
1 - Active Site

>  <HIPPO Compound ID>  (305) 
50179

>  <energy_score>  (305) 
-57.853784

>  <fragmenstein_mode>  (305) 
expansion

>  <scratch_subdir>  (305) 
/opt/xchem-fragalysis-2/maxwin/BulkDock/SCRATCH/512171/C45982-P244

>  <smiles>  (305) 
O=S(=O)([C@H]1CCCN(c2ncco2)C1)N1CCc2ccccc21

>  <alias>  (305) 
C45982-P244

>  <ref_mols>  (305) 
A1778a,A3940a

>  <inspiration_score>  (305) 
None

>  <tags>  (305) 
BulkDock Fragalysis export,fragmenstein_placed,openbind_a71ev2a_c1_scaffolds,openbind_a71ev2a_c1_knitwork_pure

>  <fragmenstein_outcome>  (305) 
acceptable

>  <fragmenstein_error>  (305) 


>  <distance_score>  (305) 
0.808765

>  <inchikey>  (305) 
JRWNVUPFKXEMMQ-UHFFFAOYSA-N

>  <name>  (305) 
C45982-P244

>  <HIPPO Pose ID>  (305) 
237296

>  <Energy>  (305) 
-35.977598

>  <exports>  (305) 
['/opt/xchem-fragalysis-2/maxwin/BulkDock/OUTPUTS/openbind_a71ev2a_c1_knitwork_pure_165VWF8.sdf', '/opt/xchem-fragalysis-2/maxwin/BulkDock/OUTPUTS/openbind_a71ev2a_c1_knitwork_pure_1B07PTU.sdf', '/opt/xchem-fragalysis-2/maxwin/BulkDock/OUTPUTS/openbind_a71ev2a_c1_knitwork_pure_1B07UWE.sdf', '/opt/xchem-fragalysis-2/maxwin/openbind-hippo/a71ev2a/openbind_a71ev2a_c1_scaffold_products.sdf', '/opt/xchem-fragalysis-2/maxwin/openbind-hippo/a71ev2a/cycle_01/bulkdock/openbind_a71ev2a_c1_scaffold_products.sdf', '/opt/xchem-fragalysis-2/maxwin/openbind-hippo/a71ev2a/cycle_01/bulkdock/openbind_a71ev2a_c1_scaffolds.sdf']

>  <fragmenstein_runtime>  (305) 
6.712888

$$$$
C98152-P58
     RDKit          3D

 24 27  0  0  0  0  0  0  0  0999 V2000
   11.6706   23.4244   24.4672 C   0  0  0  0  0  0  0  0  0  0  0  0
   11.8703   23.0715   25.9527 C   0  0  2  0  0  0  0  0  0  0  0  0
   13.2411   22.4429   26.1307 C   0  0  0  0  0  0  0  0  0  0  0  0
   14.0739   22.6023   27.1493 N   0  0  0  0  0  0  0  0  0  0  0  0
   15.1930   21.9094   26.7654 C   0  0  0  0  0  0  0  0  0  0  0  0
   16.4144   21.6969   27.4183 C   0  0  0  0  0  0  0  0  0  0  0  0
   17.4038   20.9581   26.7506 C   0  0  0  0  0  0  0  0  0  0  0  0
   17.1831   20.4510   25.4638 C   0  0  0  0  0  0  0  0  0  0  0  0
   15.9680   20.6565   24.7996 C   0  0  0  0  0  0  0  0  0  0  0  0
   15.0095   21.3807   25.4992 C   0  0  0  0  0  0  0  0  0  0  0  0
   13.7508   21.7071   25.0874 O   0  0  0  0  0  0  0  0  0  0  0  0
   10.7606   22.2538   26.5022 N   0  0  0  0  0  0  0  0  0  0  0  0
    9.4253   22.7847   26.1864 C   0  0  0  0  0  0  0  0  0  0  0  0
    8.3033   22.0590   26.9582 C   0  0  0  0  0  0  0  0  0  0  0  0
    8.3796   22.2028   28.4196 N   0  0  0  0  0  0  0  0  0  0  0  0
    7.7315   21.1308   29.1973 C   0  0  2  0  0  0  0  0  0  0  0  0
    8.5920   19.8898   29.4614 C   0  0  0  0  0  0  0  0  0  0  0  0
    7.7260   18.9304   30.2549 C   0  0  0  0  0  0  0  0  0  0  0  0
    6.1436   19.0187   29.4604 S   0  0  0  0  0  0  0  0  0  0  0  0
    6.1059   17.9418   28.4933 O   0  0  0  0  0  0  0  0  0  0  0  0
    5.1274   19.1883   30.4776 O   0  0  0  0  0  0  0  0  0  0  0  0
    6.4104   20.5770   28.6200 C   0  0  0  0  0  0  0  0  0  0  0  0
    9.7515   22.5413   28.8453 C   0  0  0  0  0  0  0  0  0  0  0  0
   10.8917   21.9789   27.9513 C   0  0  0  0  0  0  0  0  0  0  0  0
  2  1  1  6
  2  3  1  0
  3  4  2  0
  4  5  1  0
  5  6  2  0
  6  7  1  0
  7  8  2  0
  8  9  1  0
  9 10  2  0
 10 11  1  0
  2 12  1  0
 12 13  1  0
 13 14  1  0
 14 15  1  0
 16 15  1  6
 16 17  1  0
 17 18  1  0
 18 19  1  0
 19 20  2  0
 19 21  2  0
 19 22  1  0
 15 23  1  0
 23 24  1  0
 11  3  1  0
 24 12  1  0
 10  5  1  0
 22 16  1  0
M  END
>  <ref_pdb>  (306) 
A0354a

>  <subsites>  (306) 
3 - A0541/A/147/1,4 - A0525/A/246/1

>  <HIPPO Compound ID>  (306) 
98152

>  <energy_score>  (306) 
-57.825262

>  <fragmenstein_mode>  (306) 
expansion

>  <scratch_subdir>  (306) 
/opt/xchem-fragalysis-2/maxwin/BulkDock/SCRATCH/512172/C98152-P58

>  <smiles>  (306) 
C[C@H](c1nc2ccccc2o1)N1CCN([C@@H]2CCS(=O)(=O)C2)CC1

>  <alias>  (306) 
C98152-P58

>  <ref_mols>  (306) 
A0354a,A0469a

>  <inspiration_score>  (306) 
None

>  <tags>  (306) 
BulkDock Fragalysis export,fragmenstein_placed,openbind_a71ev2a_c1_scaffolds,openbind_a71ev2a_c1_knitwork_pure

>  <fragmenstein_outcome>  (306) 
acceptable

>  <fragmenstein_error>  (306) 


>  <distance_score>  (306) 
0.781346

>  <inchikey>  (306) 
VZPBIZGIEVBAAL-UHFFFAOYSA-N

>  <name>  (306) 
C98152-P58

>  <HIPPO Pose ID>  (306) 
238047

>  <Energy>  (306) 
130.176886

>  <exports>  (306) 
['/opt/xchem-fragalysis-2/maxwin/BulkDock/OUTPUTS/openbind_a71ev2a_c1_knitwork_pure_165VWF8.sdf', '/opt/xchem-fragalysis-2/maxwin/BulkDock/OUTPUTS/openbind_a71ev2a_c1_knitwork_pure_1B07PTU.sdf', '/opt/xchem-fragalysis-2/maxwin/BulkDock/OUTPUTS/openbind_a71ev2a_c1_knitwork_pure_1B07UWE.sdf', '/opt/xchem-fragalysis-2/maxwin/openbind-hippo/a71ev2a/openbind_a71ev2a_c1_scaffold_products.sdf', '/opt/xchem-fragalysis-2/maxwin/openbind-hippo/a71ev2a/cycle_01/bulkdock/openbind_a71ev2a_c1_scaffold_products.sdf', '/opt/xchem-fragalysis-2/maxwin/openbind-hippo/a71ev2a/cycle_01/bulkdock/openbind_a71ev2a_c1_scaffolds.sdf']

>  <fragmenstein_runtime>  (306) 
185.770321

$$$$
C45884-P374
     RDKit          3D

 22 25  0  0  0  0  0  0  0  0999 V2000
   26.3224   20.4837   20.9966 C   0  0  0  0  0  0  0  0  0  0  0  0
   25.7660   21.4806   21.7537 C   0  0  0  0  0  0  0  0  0  0  0  0
   26.5636   22.5786   21.9925 C   0  0  0  0  0  0  0  0  0  0  0  0
   26.0669   23.6488   22.7678 N   0  0  0  0  0  0  0  0  0  0  0  0
   26.6603   24.9591   22.7967 C   0  0  0  0  0  0  0  0  0  0  0  0
   25.3064   25.4778   23.3419 C   0  0  0  0  0  0  0  0  0  0  0  0
   24.8446   26.7859   22.6840 C   0  0  0  0  0  0  0  0  0  0  0  0
   23.7747   27.4337   23.5549 C   0  0  0  0  0  0  0  0  0  0  0  0
   24.3336   27.7679   24.9442 C   0  0  0  0  0  0  0  0  0  0  0  0
   25.3833   26.8492   25.3953 N   0  0  0  0  0  0  0  0  0  0  0  0
   25.1888   25.4955   24.8767 C   0  0  0  0  0  0  0  0  0  0  0  0
   24.7355   24.1814   22.7089 C   0  0  0  0  0  0  0  0  0  0  0  0
   27.8264   22.6444   21.5343 N   0  0  0  0  0  0  0  0  0  0  0  0
   28.2881   21.6146   20.8107 C   0  0  0  0  0  0  0  0  0  0  0  0
   29.6172   21.7062   20.4370 N   0  0  0  0  0  0  0  0  0  0  0  0
   29.9560   21.2989   19.0807 C   0  0  2  0  0  0  0  0  0  0  0  0
   31.4674   21.0227   19.0055 C   0  0  0  0  0  0  0  0  0  0  0  0
   32.2635   22.2152   18.4703 C   0  0  0  0  0  0  0  0  0  0  0  0
   31.6307   23.5497   18.8545 C   0  0  0  0  0  0  0  0  0  0  0  0
   30.2441   23.7014   18.4030 N   0  0  0  0  0  0  0  0  0  0  0  0
   29.5803   22.4207   18.0919 C   0  0  0  0  0  0  0  0  0  0  0  0
   27.5623   20.5392   20.4910 N   0  0  0  0  0  0  0  0  0  0  0  0
  1  2  2  0
  2  3  1  0
  3  4  1  0
  4  5  1  0
  5  6  1  0
  6  7  1  0
  7  8  1  0
  8  9  1  0
  9 10  1  0
 10 11  1  0
  6 12  1  0
  3 13  2  0
 13 14  1  0
 14 15  1  0
 16 15  1  1
 16 17  1  0
 17 18  1  0
 18 19  1  0
 19 20  1  0
 20 21  1  0
 14 22  2  0
 22  1  1  0
 12  4  1  0
 21 16  1  0
 11  6  1  0
M  END
>  <ref_pdb>  (307) 
A4463a

>  <subsites>  (307) 
1 - Active Site,5 - A3181/A/202/1

>  <HIPPO Compound ID>  (307) 
47396

>  <energy_score>  (307) 
-49.666313

>  <fragmenstein_mode>  (307) 
expansion

>  <scratch_subdir>  (307) 
/opt/xchem-fragalysis-2/maxwin/BulkDock/SCRATCH/512172/C45884-P374

>  <smiles>  (307) 
c1cc(N2CC3(CCCNC3)C2)nc(N[C@@H]2CCCNC2)n1

>  <alias>  (307) 
C45884-P374

>  <ref_mols>  (307) 
A1146a,A4463a

>  <inspiration_score>  (307) 
None

>  <tags>  (307) 
BulkDock Fragalysis export,fragmenstein_placed,openbind_a71ev2a_c1_scaffolds,openbind_a71ev2a_c1_knitwork_pure

>  <fragmenstein_outcome>  (307) 
acceptable

>  <fragmenstein_error>  (307) 


>  <distance_score>  (307) 
0.67518

>  <inchikey>  (307) 
YLTDZWFXEQMEQY-UHFFFAOYSA-N

>  <name>  (307) 
C45884-P374

>  <HIPPO Pose ID>  (307) 
239745

>  <Energy>  (307) 
-68.678254

>  <exports>  (307) 
['/opt/xchem-fragalysis-2/maxwin/BulkDock/OUTPUTS/openbind_a71ev2a_c1_knitwork_pure_165VWF8.sdf', '/opt/xchem-fragalysis-2/maxwin/BulkDock/OUTPUTS/openbind_a71ev2a_c1_knitwork_pure_1B07PTU.sdf', '/opt/xchem-fragalysis-2/maxwin/BulkDock/OUTPUTS/openbind_a71ev2a_c1_knitwork_pure_1B07UWE.sdf', '/opt/xchem-fragalysis-2/maxwin/openbind-hippo/a71ev2a/openbind_a71ev2a_c1_scaffold_products.sdf', '/opt/xchem-fragalysis-2/maxwin/openbind-hippo/a71ev2a/cycle_01/bulkdock/openbind_a71ev2a_c1_scaffold_products.sdf', '/opt/xchem-fragalysis-2/maxwin/openbind-hippo/a71ev2a/cycle_01/bulkdock/openbind_a71ev2a_c1_scaffolds.sdf']

>  <fragmenstein_runtime>  (307) 
19.120287

$$$$
C51427-P384
     RDKit          3D

 23 25  0  0  0  0  0  0  0  0999 V2000
    3.0415   15.1563   25.0328 C   0  0  0  0  0  0  0  0  0  0  0  0
    2.9340   15.4382   23.5375 C   0  0  0  0  0  0  0  0  0  0  0  0
    3.8854   14.5689   22.6976 C   0  0  2  0  0  0  0  0  0  0  0  0
    5.2805   14.8591   22.9830 N   0  0  0  0  0  0  0  0  0  0  0  0
    6.5324   14.0007   22.7966 C   0  0  0  0  0  0  0  0  0  0  0  0
    6.6617   12.9517   22.3137 O   0  0  0  0  0  0  0  0  0  0  0  0
    7.6843   14.6260   23.4343 C   0  0  0  0  0  0  0  0  0  0  0  0
    8.0589   15.9326   23.2280 N   0  0  0  0  0  0  0  0  0  0  0  0
    9.1638   16.0525   23.9238 C   0  0  0  0  0  0  0  0  0  0  0  0
    9.4893   14.9704   24.6752 O   0  0  0  0  0  0  0  0  0  0  0  0
    8.5536   14.0279   24.3365 C   0  0  0  0  0  0  0  0  0  0  0  0
    8.7633   12.6921   24.9756 C   0  0  2  0  0  0  0  0  0  0  0  0
    9.8463   11.9108   24.2127 C   0  0  0  0  0  0  0  0  0  0  0  0
    9.2829   10.6396   23.6139 C   0  0  0  0  0  0  0  0  0  0  0  0
    8.6082    9.7746   24.6641 C   0  0  0  0  0  0  0  0  0  0  0  0
    7.7366   10.4937   25.5974 N   0  0  0  0  0  0  0  0  0  0  0  0
    7.4737   11.8776   25.2030 C   0  0  0  0  0  0  0  0  0  0  0  0
    3.5233   14.4897   21.2145 C   0  0  0  0  0  0  0  0  0  0  0  0
    3.9241   13.3731   20.4677 C   0  0  0  0  0  0  0  0  0  0  0  0
    3.4285   13.1585   19.1865 C   0  0  0  0  0  0  0  0  0  0  0  0
    2.5286   14.0703   18.6795 C   0  0  0  0  0  0  0  0  0  0  0  0
    2.2087   15.1798   19.4498 C   0  0  0  0  0  0  0  0  0  0  0  0
    2.6968   15.4291   20.6904 N   0  0  0  0  0  0  0  0  0  0  0  0
  1  2  1  0
  3  2  1  6
  3  4  1  0
  4  5  1  0
  5  6  2  0
  5  7  1  0
  7  8  1  0
  8  9  2  0
  9 10  1  0
 10 11  1  0
 12 11  1  6
 12 13  1  0
 13 14  1  0
 14 15  1  0
 15 16  1  0
 16 17  1  0
  3 18  1  0
 18 19  2  0
 19 20  1  0
 20 21  2  0
 21 22  1  0
 22 23  2  0
 11  7  2  0
 17 12  1  0
 23 18  1  0
M  END
>  <ref_pdb>  (308) 
A4509a

>  <subsites>  (308) 
1 - Active Site

>  <HIPPO Compound ID>  (308) 
50784

>  <energy_score>  (308) 
-9.006664

>  <fragmenstein_mode>  (308) 
expansion

>  <scratch_subdir>  (308) 
/opt/xchem-fragalysis-2/maxwin/BulkDock/SCRATCH/512172/C51427-P384

>  <smiles>  (308) 
CC[C@H](NC(=O)c1ncoc1[C@@H]1CCCNC1)c1ccccn1

>  <alias>  (308) 
C51427-P384

>  <ref_mols>  (308) 
A3623a,A4509a

>  <inspiration_score>  (308) 
None

>  <tags>  (308) 
BulkDock Fragalysis export,fragmenstein_placed,openbind_a71ev2a_c1_scaffolds,openbind_a71ev2a_c1_knitwork_pure

>  <fragmenstein_outcome>  (308) 
acceptable

>  <fragmenstein_error>  (308) 


>  <distance_score>  (308) 
0.929489

>  <inchikey>  (308) 
OZOCKCQNPSVVFB-UHFFFAOYSA-N

>  <name>  (308) 
C51427-P384

>  <HIPPO Pose ID>  (308) 
240921

>  <Energy>  (308) 
74.293178

>  <exports>  (308) 
['/opt/xchem-fragalysis-2/maxwin/BulkDock/OUTPUTS/openbind_a71ev2a_c1_knitwork_pure_165VWF8.sdf', '/opt/xchem-fragalysis-2/maxwin/BulkDock/OUTPUTS/openbind_a71ev2a_c1_knitwork_pure_1B07PTU.sdf', '/opt/xchem-fragalysis-2/maxwin/BulkDock/OUTPUTS/openbind_a71ev2a_c1_knitwork_pure_1B07UWE.sdf', '/opt/xchem-fragalysis-2/maxwin/openbind-hippo/a71ev2a/openbind_a71ev2a_c1_scaffold_products.sdf', '/opt/xchem-fragalysis-2/maxwin/openbind-hippo/a71ev2a/cycle_01/bulkdock/openbind_a71ev2a_c1_scaffold_products.sdf', '/opt/xchem-fragalysis-2/maxwin/openbind-hippo/a71ev2a/cycle_01/bulkdock/openbind_a71ev2a_c1_scaffolds.sdf']

>  <fragmenstein_runtime>  (308) 
7.183829

$$$$
C48037-P492
     RDKit          3D

 21 22  0  0  0  0  0  0  0  0999 V2000
   11.7894   14.8796   22.9559 C   0  0  0  0  0  0  0  0  0  0  0  0
   10.4968   15.4671   23.4973 C   0  0  0  0  0  0  0  0  0  0  0  0
    9.2645   15.0199   22.7257 C   0  0  0  0  0  0  0  0  0  0  0  0
    8.7022   13.3708   23.1149 S   0  0  0  0  0  0  0  0  0  0  0  0
    7.4938   13.1215   22.3570 O   0  0  0  0  0  0  0  0  0  0  0  0
    9.8074   12.4414   23.1014 O   0  0  0  0  0  0  0  0  0  0  0  0
    8.3016   13.5038   24.7492 N   0  0  0  0  0  0  0  0  0  0  0  0
    7.3924   12.5010   25.2167 C   0  0  0  0  0  0  0  0  0  0  0  0
    6.2232   12.9366   25.8207 C   0  0  0  0  0  0  0  0  0  0  0  0
    5.3651   12.0195   26.4262 C   0  0  0  0  0  0  0  0  0  0  0  0
    5.6786   10.6573   26.4654 C   0  0  0  0  0  0  0  0  0  0  0  0
    4.8310    9.6409   27.2087 C   0  0  0  0  0  0  0  0  0  0  0  0
    3.6322   10.1811   28.0211 C   0  0  0  0  0  0  0  0  0  0  0  0
    3.0234    9.2909   29.0284 N   0  0  0  0  0  0  0  0  0  0  0  0
    2.6998    7.9605   28.4977 C   0  0  0  0  0  0  0  0  0  0  0  0
    1.9102    7.1478   29.5261 C   0  0  0  0  0  0  0  0  0  0  0  0
    2.6571    7.0492   30.8519 C   0  0  0  0  0  0  0  0  0  0  0  0
    3.0869    8.4289   31.3347 C   0  0  0  0  0  0  0  0  0  0  0  0
    3.8413    9.1887   30.2425 C   0  0  0  0  0  0  0  0  0  0  0  0
    6.8432   10.2291   25.8069 C   0  0  0  0  0  0  0  0  0  0  0  0
    7.7024   11.1428   25.1916 C   0  0  0  0  0  0  0  0  0  0  0  0
  1  2  1  0
  2  3  1  0
  3  4  1  0
  4  5  2  0
  4  6  2  0
  4  7  1  0
  7  8  1  0
  8  9  2  0
  9 10  1  0
 10 11  2  0
 11 12  1  0
 12 13  1  0
 13 14  1  0
 14 15  1  0
 15 16  1  0
 16 17  1  0
 17 18  1  0
 18 19  1  0
 11 20  1  0
 20 21  2  0
 21  8  1  0
 19 14  1  0
M  END
>  <ref_pdb>  (309) 
A4873a

>  <subsites>  (309) 
1 - Active Site

>  <HIPPO Compound ID>  (309) 
46779

>  <energy_score>  (309) 
-48.296618

>  <fragmenstein_mode>  (309) 
expansion

>  <scratch_subdir>  (309) 
/opt/xchem-fragalysis-2/maxwin/BulkDock/SCRATCH/512172/C48037-P492

>  <smiles>  (309) 
CCCS(=O)(=O)Nc1ccc(CCN2CCCCC2)cc1

>  <alias>  (309) 
C48037-P492

>  <ref_mols>  (309) 
A4873a,A0719a

>  <inspiration_score>  (309) 
None

>  <tags>  (309) 
BulkDock Fragalysis export,fragmenstein_placed,openbind_a71ev2a_c1_scaffolds,openbind_a71ev2a_c1_knitwork_pure

>  <fragmenstein_outcome>  (309) 
acceptable

>  <fragmenstein_error>  (309) 


>  <distance_score>  (309) 
0.963795

>  <inchikey>  (309) 
JJWFKWAOMFMQRZ-UHFFFAOYSA-N

>  <name>  (309) 
C48037-P492

>  <HIPPO Pose ID>  (309) 
241190

>  <Energy>  (309) 
-16.984897

>  <exports>  (309) 
['/opt/xchem-fragalysis-2/maxwin/BulkDock/OUTPUTS/openbind_a71ev2a_c1_knitwork_pure_165VWF8.sdf', '/opt/xchem-fragalysis-2/maxwin/BulkDock/OUTPUTS/openbind_a71ev2a_c1_knitwork_pure_1B07PTU.sdf', '/opt/xchem-fragalysis-2/maxwin/BulkDock/OUTPUTS/openbind_a71ev2a_c1_knitwork_pure_1B07UWE.sdf', '/opt/xchem-fragalysis-2/maxwin/openbind-hippo/a71ev2a/openbind_a71ev2a_c1_scaffold_products.sdf', '/opt/xchem-fragalysis-2/maxwin/openbind-hippo/a71ev2a/cycle_01/bulkdock/openbind_a71ev2a_c1_scaffold_products.sdf', '/opt/xchem-fragalysis-2/maxwin/openbind-hippo/a71ev2a/cycle_01/bulkdock/openbind_a71ev2a_c1_scaffolds.sdf']

>  <fragmenstein_runtime>  (309) 
5.50893

$$$$
C99430-P339
     RDKit          3D

 19 21  0  0  0  0  0  0  0  0999 V2000
    6.5831   13.7084   25.9121 O   0  0  0  0  0  0  0  0  0  0  0  0
    7.6968   14.1923   25.7172 C   0  0  0  0  0  0  0  0  0  0  0  0
    8.7392   13.4636   24.8841 C   0  0  0  0  0  0  0  0  0  0  0  0
    8.8490   13.9989   23.4534 C   0  0  0  0  0  0  0  0  0  0  0  0
    9.3535   15.3744   23.3564 N   0  0  0  0  0  0  0  0  0  0  0  0
   10.7682   15.5325   23.7363 C   0  0  0  0  0  0  0  0  0  0  0  0
   11.7979   15.0737   22.6888 C   0  0  0  0  0  0  0  0  0  0  0  0
   11.5890   15.6791   21.3759 N   0  0  0  0  0  0  0  0  0  0  0  0
   10.2041   15.4384   20.9406 C   0  0  0  0  0  0  0  0  0  0  0  0
    9.1641   15.9158   21.9826 C   0  0  0  0  0  0  0  0  0  0  0  0
    8.0348   15.4988   26.3504 C   0  0  0  0  0  0  0  0  0  0  0  0
    9.2990   15.7121   26.9173 C   0  0  0  0  0  0  0  0  0  0  0  0
    9.6410   16.9342   27.5085 C   0  0  0  0  0  0  0  0  0  0  0  0
    8.6467   17.9101   27.5442 C   0  0  0  0  0  0  0  0  0  0  0  0
    8.6290   19.1884   28.0432 N   0  0  0  0  0  0  0  0  0  0  0  0
    7.3733   19.6935   27.8752 C   0  0  0  0  0  0  0  0  0  0  0  0
    6.5818   18.8227   27.2943 N   0  0  0  0  0  0  0  0  0  0  0  0
    7.3621   17.7154   27.0460 C   0  0  0  0  0  0  0  0  0  0  0  0
    7.0453   16.4950   26.4222 C   0  0  0  0  0  0  0  0  0  0  0  0
  1  2  2  0
  2  3  1  0
  3  4  1  0
  4  5  1  0
  5  6  1  0
  6  7  1  0
  7  8  1  0
  8  9  1  0
  9 10  1  0
  2 11  1  0
 11 12  2  0
 12 13  1  0
 13 14  2  0
 14 15  1  0
 15 16  1  0
 16 17  2  0
 17 18  1  0
 18 19  2  0
 10  5  1  0
 19 11  1  0
 18 14  1  0
M  END
>  <ref_pdb>  (310) 
A4237b

>  <subsites>  (310) 
1 - Active Site,4 - A0525/A/246/1

>  <HIPPO Compound ID>  (310) 
55076

>  <energy_score>  (310) 
-24.134172

>  <fragmenstein_mode>  (310) 
expansion

>  <scratch_subdir>  (310) 
/opt/xchem-fragalysis-2/maxwin/BulkDock/SCRATCH/512172/C99430-P339

>  <smiles>  (310) 
O=C(CCN1CCNCC1)c1ccc2[nH]cnc2c1

>  <alias>  (310) 
C99430-P339

>  <ref_mols>  (310) 
A4237b,A0469a

>  <inspiration_score>  (310) 
None

>  <tags>  (310) 
BulkDock Fragalysis export,fragmenstein_placed,openbind_a71ev2a_c1_scaffolds,openbind_a71ev2a_c1_knitwork_pure

>  <fragmenstein_outcome>  (310) 
acceptable

>  <fragmenstein_error>  (310) 


>  <distance_score>  (310) 
0.909756

>  <inchikey>  (310) 
OHXVFTFJECSKFY-UHFFFAOYSA-N

>  <name>  (310) 
C99430-P339

>  <HIPPO Pose ID>  (310) 
242098

>  <Energy>  (310) 
94.947333

>  <exports>  (310) 
['/opt/xchem-fragalysis-2/maxwin/BulkDock/OUTPUTS/openbind_a71ev2a_c1_knitwork_pure_165VWF8.sdf', '/opt/xchem-fragalysis-2/maxwin/BulkDock/OUTPUTS/openbind_a71ev2a_c1_knitwork_pure_1B07PTU.sdf', '/opt/xchem-fragalysis-2/maxwin/BulkDock/OUTPUTS/openbind_a71ev2a_c1_knitwork_pure_1B07UWE.sdf', '/opt/xchem-fragalysis-2/maxwin/openbind-hippo/a71ev2a/openbind_a71ev2a_c1_scaffold_products.sdf', '/opt/xchem-fragalysis-2/maxwin/openbind-hippo/a71ev2a/cycle_01/bulkdock/openbind_a71ev2a_c1_scaffold_products.sdf', '/opt/xchem-fragalysis-2/maxwin/openbind-hippo/a71ev2a/cycle_01/bulkdock/openbind_a71ev2a_c1_scaffolds.sdf']

>  <fragmenstein_runtime>  (310) 
5.29584

$$$$
C51749-P174
     RDKit          3D

 22 23  0  0  0  0  0  0  0  0999 V2000
    9.1841   14.2911   24.2404 O   0  0  0  0  0  0  0  0  0  0  0  0
    9.4249   13.5571   23.3650 C   0  0  0  0  0  0  0  0  0  0  0  0
   10.0847   13.8185   21.9904 N   0  0  0  0  0  0  0  0  0  0  0  0
   10.5004   15.0585   21.3666 C   0  0  0  0  0  0  0  0  0  0  0  0
   12.0264   15.2476   21.4088 C   0  0  0  0  0  0  0  0  0  0  0  0
   12.4464   16.4780   20.7146 N   0  0  0  0  0  0  0  0  0  0  0  0
   13.7371   16.9536   21.2039 C   0  0  0  0  0  0  0  0  0  0  0  0
   14.0919   18.3237   20.6177 C   0  0  0  0  0  0  0  0  0  0  0  0
   13.9259   18.3623   19.1056 C   0  0  0  0  0  0  0  0  0  0  0  0
   13.6716   16.9691   18.5587 C   0  0  0  0  0  0  0  0  0  0  0  0
   12.4640   16.3074   19.2440 C   0  0  0  0  0  0  0  0  0  0  0  0
    9.0305   12.1174   23.5758 C   0  0  0  0  0  0  0  0  0  0  0  0
    9.7061   11.0620   22.9808 C   0  0  0  0  0  0  0  0  0  0  0  0
    9.2923    9.7693   23.2353 C   0  0  0  0  0  0  0  0  0  0  0  0
    8.2524    9.4857   24.0323 N   0  0  0  0  0  0  0  0  0  0  0  0
    7.5974   10.5006   24.6229 C   0  0  0  0  0  0  0  0  0  0  0  0
    6.5444   10.0353   25.3324 O   0  0  0  0  0  0  0  0  0  0  0  0
    6.0576   10.8717   26.3464 C   0  0  0  0  0  0  0  0  0  0  0  0
    5.4940   11.9887   25.8550 F   0  0  0  0  0  0  0  0  0  0  0  0
    5.1071   10.2012   27.0376 F   0  0  0  0  0  0  0  0  0  0  0  0
    7.0313   11.2259   27.2066 F   0  0  0  0  0  0  0  0  0  0  0  0
    7.9572   11.8267   24.4286 C   0  0  0  0  0  0  0  0  0  0  0  0
  1  2  2  0
  2  3  1  0
  3  4  1  0
  4  5  1  0
  5  6  1  0
  6  7  1  0
  7  8  1  0
  8  9  1  0
  9 10  1  0
 10 11  1  0
  2 12  1  0
 12 13  2  0
 13 14  1  0
 14 15  2  0
 15 16  1  0
 16 17  1  0
 17 18  1  0
 18 19  1  0
 18 20  1  0
 18 21  1  0
 16 22  2  0
 11  6  1  0
 22 12  1  0
M  END
>  <ref_pdb>  (311) 
A3371a

>  <subsites>  (311) 
1 - Active Site

>  <HIPPO Compound ID>  (311) 
16370

>  <energy_score>  (311) 
-11.743697

>  <fragmenstein_mode>  (311) 
expansion

>  <scratch_subdir>  (311) 
/opt/xchem-fragalysis-2/maxwin/BulkDock/SCRATCH/512172/C51749-P174

>  <smiles>  (311) 
O=C(NCCN1CCCCC1)c1ccnc(OC(F)(F)F)c1

>  <alias>  (311) 
C51749-P174

>  <ref_mols>  (311) 
A4291a,A3371a

>  <inspiration_score>  (311) 
None

>  <tags>  (311) 
BulkDock Fragalysis export,fragmenstein_placed,openbind_a71ev2a_c1_scaffolds,openbind_a71ev2a_c1_knitwork_pure

>  <fragmenstein_outcome>  (311) 
acceptable

>  <fragmenstein_error>  (311) 


>  <distance_score>  (311) 
0.734346

>  <inchikey>  (311) 
ABUSFKREGHFGSP-UHFFFAOYSA-N

>  <name>  (311) 
C51749-P174

>  <HIPPO Pose ID>  (311) 
242264

>  <Energy>  (311) 
7.593908

>  <exports>  (311) 
['/opt/xchem-fragalysis-2/maxwin/BulkDock/OUTPUTS/openbind_a71ev2a_c1_knitwork_pure_165VWF8.sdf', '/opt/xchem-fragalysis-2/maxwin/BulkDock/OUTPUTS/openbind_a71ev2a_c1_knitwork_pure_1B07PTU.sdf', '/opt/xchem-fragalysis-2/maxwin/BulkDock/OUTPUTS/openbind_a71ev2a_c1_knitwork_pure_1B07UWE.sdf', '/opt/xchem-fragalysis-2/maxwin/openbind-hippo/a71ev2a/openbind_a71ev2a_c1_scaffold_products.sdf', '/opt/xchem-fragalysis-2/maxwin/openbind-hippo/a71ev2a/cycle_01/bulkdock/openbind_a71ev2a_c1_scaffold_products.sdf', '/opt/xchem-fragalysis-2/maxwin/openbind-hippo/a71ev2a/cycle_01/bulkdock/openbind_a71ev2a_c1_scaffolds.sdf']

>  <fragmenstein_runtime>  (311) 
8.886722

$$$$
C45982-P401
     RDKit          3D

 23 26  0  0  0  0  0  0  0  0999 V2000
    7.6059   13.4436   22.3432 O   0  0  0  0  0  0  0  0  0  0  0  0
    7.8659   14.0924   23.6138 S   0  0  0  0  0  0  0  0  0  0  0  0
    6.7558   14.6190   24.3876 O   0  0  0  0  0  0  0  0  0  0  0  0
    8.9914   15.4858   23.4640 C   0  0  1  0  0  0  0  0  0  0  0  0
   10.2378   15.4721   24.3586 C   0  0  0  0  0  0  0  0  0  0  0  0
   11.4842   14.8876   23.7030 C   0  0  0  0  0  0  0  0  0  0  0  0
   11.6707   15.4167   22.2966 C   0  0  0  0  0  0  0  0  0  0  0  0
   10.4592   15.1440   21.5225 N   0  0  0  0  0  0  0  0  0  0  0  0
   10.6912   15.4411   20.2289 C   0  0  0  0  0  0  0  0  0  0  0  0
   10.5959   16.6119   19.6555 N   0  0  0  0  0  0  0  0  0  0  0  0
   11.1315   16.3770   18.4340 C   0  0  0  0  0  0  0  0  0  0  0  0
   11.4461   15.0625   18.2792 C   0  0  0  0  0  0  0  0  0  0  0  0
   11.2313   14.4641   19.4651 O   0  0  0  0  0  0  0  0  0  0  0  0
    9.2710   15.8462   22.0210 C   0  0  0  0  0  0  0  0  0  0  0  0
    8.7211   12.9740   24.6025 N   0  0  0  0  0  0  0  0  0  0  0  0
    9.6139   12.0193   23.8404 C   0  0  0  0  0  0  0  0  0  0  0  0
    8.9816   10.6261   23.9387 C   0  0  0  0  0  0  0  0  0  0  0  0
    7.9684   10.8142   25.0141 C   0  0  0  0  0  0  0  0  0  0  0  0
    7.1292    9.8730   25.5694 C   0  0  0  0  0  0  0  0  0  0  0  0
    6.2520   10.2527   26.5869 C   0  0  0  0  0  0  0  0  0  0  0  0
    6.2188   11.5751   27.0301 C   0  0  0  0  0  0  0  0  0  0  0  0
    7.0247   12.5365   26.4216 C   0  0  0  0  0  0  0  0  0  0  0  0
    7.8700   12.1403   25.3991 C   0  0  0  0  0  0  0  0  0  0  0  0
  1  2  2  0
  2  3  2  0
  4  2  1  6
  4  5  1  0
  5  6  1  0
  6  7  1  0
  7  8  1  0
  8  9  1  0
  9 10  2  0
 10 11  1  0
 11 12  2  0
 12 13  1  0
  8 14  1  0
  2 15  1  0
 15 16  1  0
 16 17  1  0
 17 18  1  0
 18 19  2  0
 19 20  1  0
 20 21  2  0
 21 22  1  0
 22 23  2  0
 14  4  1  0
 23 15  1  0
 13  9  1  0
 23 18  1  0
M  END
>  <ref_pdb>  (312) 
A4554a

>  <subsites>  (312) 
1 - Active Site

>  <HIPPO Compound ID>  (312) 
46399

>  <energy_score>  (312) 
-39.436925

>  <fragmenstein_mode>  (312) 
expansion

>  <scratch_subdir>  (312) 
/opt/xchem-fragalysis-2/maxwin/BulkDock/SCRATCH/512172/C45982-P401

>  <smiles>  (312) 
O=S(=O)([C@H]1CCCN(c2ncco2)C1)N1CCc2ccccc21

>  <alias>  (312) 
C45982-P401

>  <ref_mols>  (312) 
A3623a,A4554a

>  <inspiration_score>  (312) 
None

>  <tags>  (312) 
BulkDock Fragalysis export,fragmenstein_placed,openbind_a71ev2a_c1_scaffolds,openbind_a71ev2a_c1_knitwork_pure

>  <fragmenstein_outcome>  (312) 
acceptable

>  <fragmenstein_error>  (312) 


>  <distance_score>  (312) 
0.912632

>  <inchikey>  (312) 
NZLDTOKBIBVWEI-UHFFFAOYSA-N

>  <name>  (312) 
C45982-P401

>  <HIPPO Pose ID>  (312) 
245992

>  <Energy>  (312) 
-32.525547

>  <exports>  (312) 
['/opt/xchem-fragalysis-2/maxwin/BulkDock/OUTPUTS/openbind_a71ev2a_c1_knitwork_pure_165VWF8.sdf', '/opt/xchem-fragalysis-2/maxwin/BulkDock/OUTPUTS/openbind_a71ev2a_c1_knitwork_pure_1B07PTU.sdf', '/opt/xchem-fragalysis-2/maxwin/BulkDock/OUTPUTS/openbind_a71ev2a_c1_knitwork_pure_1B07UWE.sdf', '/opt/xchem-fragalysis-2/maxwin/openbind-hippo/a71ev2a/openbind_a71ev2a_c1_scaffold_products.sdf', '/opt/xchem-fragalysis-2/maxwin/openbind-hippo/a71ev2a/cycle_01/bulkdock/openbind_a71ev2a_c1_scaffold_products.sdf', '/opt/xchem-fragalysis-2/maxwin/openbind-hippo/a71ev2a/cycle_01/bulkdock/openbind_a71ev2a_c1_scaffolds.sdf']

>  <fragmenstein_runtime>  (312) 
93.710653

$$$$
C78052-P22
     RDKit          3D

 22 23  0  0  0  0  0  0  0  0999 V2000
   10.2519    8.8488   23.1356 C   0  0  0  0  0  0  0  0  0  0  0  0
   10.1224   10.3307   23.0462 C   0  0  0  0  0  0  0  0  0  0  0  0
    8.8197   10.7908   23.3638 O   0  0  0  0  0  0  0  0  0  0  0  0
    8.4773   10.8051   24.7364 C   0  0  0  0  0  0  0  0  0  0  0  0
    7.6734   12.0647   25.0458 C   0  0  0  0  0  0  0  0  0  0  0  0
    8.1194   13.2840   24.2323 C   0  0  0  0  0  0  0  0  0  0  0  0
    9.7320   13.8246   24.7570 S   0  0  0  0  0  0  0  0  0  0  0  0
   10.6389   12.7049   24.7246 O   0  0  0  0  0  0  0  0  0  0  0  0
    9.5224   14.5680   25.9781 O   0  0  0  0  0  0  0  0  0  0  0  0
   10.2310   14.9050   23.5939 N   0  0  0  0  0  0  0  0  0  0  0  0
   11.0454   14.3948   22.4675 C   0  0  2  0  0  0  0  0  0  0  0  0
   12.4646   13.9960   22.8855 C   0  0  0  0  0  0  0  0  0  0  0  0
   13.3001   15.2072   22.5623 C   0  0  0  0  0  0  0  0  0  0  0  0
   12.6904   15.7285   21.3766 N   0  0  0  0  0  0  0  0  0  0  0  0
   13.4955   16.4625   20.3756 C   0  0  0  0  0  0  0  0  0  0  0  0
   12.8082   17.6894   19.8494 C   0  0  0  0  0  0  0  0  0  0  0  0
   13.5973   18.4810   18.8157 C   0  0  0  0  0  0  0  0  0  0  0  0
   13.9870   17.6761   17.6799 N   0  0  0  0  0  0  0  0  0  0  0  0
   14.6635   16.4840   18.1591 C   0  0  0  0  0  0  0  0  0  0  0  0
   13.7971   15.6437   19.1143 C   0  0  0  0  0  0  0  0  0  0  0  0
   11.3181   15.4579   21.3933 C   0  0  0  0  0  0  0  0  0  0  0  0
   10.4616   16.0018   20.7125 O   0  0  0  0  0  0  0  0  0  0  0  0
  1  2  1  0
  2  3  1  0
  3  4  1  0
  4  5  1  0
  5  6  1  0
  6  7  1  0
  7  8  2  0
  7  9  2  0
  7 10  1  0
 11 10  1  1
 11 12  1  0
 12 13  1  0
 13 14  1  0
 14 15  1  0
 15 16  1  0
 16 17  1  0
 17 18  1  0
 18 19  1  0
 19 20  1  0
 14 21  1  0
 21 22  2  0
 21 11  1  0
 20 15  1  0
M  END
>  <ref_pdb>  (313) 
A0528a

>  <subsites>  (313) 
1 - Active Site

>  <HIPPO Compound ID>  (313) 
53771

>  <energy_score>  (313) 
-56.748313

>  <fragmenstein_mode>  (313) 
expansion

>  <scratch_subdir>  (313) 
/opt/xchem-fragalysis-2/maxwin/BulkDock/SCRATCH/512173/C78052-P22

>  <smiles>  (313) 
CCOCCCS(=O)(=O)N[C@@H]1CCN(C2CCNCC2)C1=O

>  <alias>  (313) 
C78052-P22

>  <ref_mols>  (313) 
A0528a,A0875a

>  <inspiration_score>  (313) 
None

>  <tags>  (313) 
BulkDock Fragalysis export,fragmenstein_placed,openbind_a71ev2a_c1_scaffolds,openbind_a71ev2a_c1_knitwork_pure

>  <fragmenstein_outcome>  (313) 
acceptable

>  <fragmenstein_error>  (313) 


>  <distance_score>  (313) 
0.998352

>  <inchikey>  (313) 
TWONAIHJDMPRBM-UHFFFAOYSA-N

>  <name>  (313) 
C78052-P22

>  <HIPPO Pose ID>  (313) 
247402

>  <Energy>  (313) 
-44.81329

>  <exports>  (313) 
['/opt/xchem-fragalysis-2/maxwin/BulkDock/OUTPUTS/openbind_a71ev2a_c1_knitwork_pure_165VWF8.sdf', '/opt/xchem-fragalysis-2/maxwin/BulkDock/OUTPUTS/openbind_a71ev2a_c1_knitwork_pure_1B07PTU.sdf', '/opt/xchem-fragalysis-2/maxwin/BulkDock/OUTPUTS/openbind_a71ev2a_c1_knitwork_pure_1B07UWE.sdf', '/opt/xchem-fragalysis-2/maxwin/openbind-hippo/a71ev2a/openbind_a71ev2a_c1_scaffold_products.sdf', '/opt/xchem-fragalysis-2/maxwin/openbind-hippo/a71ev2a/cycle_01/bulkdock/openbind_a71ev2a_c1_scaffold_products.sdf', '/opt/xchem-fragalysis-2/maxwin/openbind-hippo/a71ev2a/cycle_01/bulkdock/openbind_a71ev2a_c1_scaffolds.sdf']

>  <fragmenstein_runtime>  (313) 
2.733761

$$$$
C12359-P239
     RDKit          3D

 13 13  0  0  0  0  0  0  0  0999 V2000
    7.2092   16.0036   26.4030 C   0  0  0  0  0  0  0  0  0  0  0  0
    7.9933   15.5358   25.1901 C   0  0  0  0  0  0  0  0  0  0  0  0
    7.0713   15.0988   24.0556 C   0  0  0  0  0  0  0  0  0  0  0  0
    7.8854   13.9909   22.9090 S   0  0  0  0  0  0  0  0  0  0  0  0
    8.9015   14.7539   22.2187 O   0  0  0  0  0  0  0  0  0  0  0  0
    6.9115   13.2321   22.1569 O   0  0  0  0  0  0  0  0  0  0  0  0
    8.7293   12.9014   23.9020 N   0  0  0  0  0  0  0  0  0  0  0  0
    8.0277   11.8876   24.6434 C   0  0  0  0  0  0  0  0  0  0  0  0
    7.0899   12.2022   25.6262 C   0  0  0  0  0  0  0  0  0  0  0  0
    6.4255   11.2051   26.3341 C   0  0  0  0  0  0  0  0  0  0  0  0
    6.7509    9.8979   26.0600 C   0  0  0  0  0  0  0  0  0  0  0  0
    7.7008    9.5409   25.1730 N   0  0  0  0  0  0  0  0  0  0  0  0
    8.3123   10.5383   24.4771 C   0  0  0  0  0  0  0  0  0  0  0  0
  1  2  1  0
  2  3  1  0
  3  4  1  0
  4  5  2  0
  4  6  2  0
  4  7  1  0
  7  8  1  0
  8  9  2  0
  9 10  1  0
 10 11  2  0
 11 12  1  0
 12 13  2  0
 13  8  1  0
M  END
>  <ref_pdb>  (314) 
A3920a

>  <subsites>  (314) 
1 - Active Site

>  <HIPPO Compound ID>  (314) 
47934

>  <energy_score>  (314) 
-23.020866

>  <fragmenstein_mode>  (314) 
expansion

>  <scratch_subdir>  (314) 
/opt/xchem-fragalysis-2/maxwin/BulkDock/SCRATCH/512173/C12359-P239

>  <smiles>  (314) 
CCCS(=O)(=O)Nc1cccnc1

>  <alias>  (314) 
C12359-P239

>  <ref_mols>  (314) 
A0719a,A3920a

>  <inspiration_score>  (314) 
None

>  <tags>  (314) 
BulkDock Fragalysis export,fragmenstein_placed,openbind_a71ev2a_c1_scaffolds,openbind_a71ev2a_c1_knitwork_pure

>  <fragmenstein_outcome>  (314) 
acceptable

>  <fragmenstein_error>  (314) 


>  <distance_score>  (314) 
0.908629

>  <inchikey>  (314) 
AVYIYQMLMSVDAX-UHFFFAOYSA-N

>  <name>  (314) 
C12359-P239

>  <HIPPO Pose ID>  (314) 
247729

>  <Energy>  (314) 
-16.358429

>  <exports>  (314) 
['/opt/xchem-fragalysis-2/maxwin/BulkDock/OUTPUTS/openbind_a71ev2a_c1_knitwork_pure_165VWF8.sdf', '/opt/xchem-fragalysis-2/maxwin/BulkDock/OUTPUTS/openbind_a71ev2a_c1_knitwork_pure_1B07PTU.sdf', '/opt/xchem-fragalysis-2/maxwin/BulkDock/OUTPUTS/openbind_a71ev2a_c1_knitwork_pure_1B07UWE.sdf', '/opt/xchem-fragalysis-2/maxwin/openbind-hippo/a71ev2a/openbind_a71ev2a_c1_scaffold_products.sdf', '/opt/xchem-fragalysis-2/maxwin/openbind-hippo/a71ev2a/cycle_01/bulkdock/openbind_a71ev2a_c1_scaffold_products.sdf', '/opt/xchem-fragalysis-2/maxwin/openbind-hippo/a71ev2a/cycle_01/bulkdock/openbind_a71ev2a_c1_scaffolds.sdf']

>  <fragmenstein_runtime>  (314) 
1.639308

$$$$
C69744-P182
     RDKit          3D

 16 18  0  0  0  0  0  0  0  0999 V2000
    7.2220   10.5141   25.3720 C   0  0  0  0  0  0  0  0  0  0  0  0
    7.1480   11.8858   25.5974 C   0  0  0  0  0  0  0  0  0  0  0  0
    8.1009   12.7338   25.0365 C   0  0  0  0  0  0  0  0  0  0  0  0
    9.1420   12.2099   24.2605 C   0  0  0  0  0  0  0  0  0  0  0  0
   10.1400   13.0763   23.6741 C   0  0  0  0  0  0  0  0  0  0  0  0
   11.4513   12.9762   23.6066 N   0  0  0  0  0  0  0  0  0  0  0  0
   11.7773   13.8772   22.6157 C   0  0  0  0  0  0  0  0  0  0  0  0
   10.6532   14.5212   22.1652 C   0  0  0  0  0  0  0  0  0  0  0  0
   10.4176   15.3830   21.0703 C   0  0  0  0  0  0  0  0  0  0  0  0
   10.4349   14.9714   19.8189 N   0  0  0  0  0  0  0  0  0  0  0  0
    9.6485   15.8847   19.1895 C   0  0  0  0  0  0  0  0  0  0  0  0
    9.3226   16.9172   20.0201 C   0  0  0  0  0  0  0  0  0  0  0  0
    9.8086   16.5937   21.2330 O   0  0  0  0  0  0  0  0  0  0  0  0
    9.6138   14.0907   22.9491 O   0  0  0  0  0  0  0  0  0  0  0  0
    9.1800   10.8375   23.9983 C   0  0  0  0  0  0  0  0  0  0  0  0
    8.2271    9.9937   24.5593 C   0  0  0  0  0  0  0  0  0  0  0  0
  1  2  2  0
  2  3  1  0
  3  4  2  0
  4  5  1  0
  5  6  2  0
  6  7  1  0
  7  8  2  0
  8  9  1  0
  9 10  2  0
 10 11  1  0
 11 12  2  0
 12 13  1  0
  8 14  1  0
  4 15  1  0
 15 16  2  0
 16  1  1  0
 14  5  1  0
 13  9  1  0
M  END
>  <ref_pdb>  (315) 
A3435a

>  <subsites>  (315) 
1 - Active Site

>  <HIPPO Compound ID>  (315) 
81434

>  <energy_score>  (315) 
-4.835363

>  <fragmenstein_mode>  (315) 
expansion

>  <scratch_subdir>  (315) 
/opt/xchem-fragalysis-2/maxwin/BulkDock/SCRATCH/512173/C69744-P182

>  <smiles>  (315) 
c1ccc(-c2ncc(-c3ncco3)o2)cc1

>  <alias>  (315) 
C69744-P182

>  <ref_mols>  (315) 
A3623a,A3435a

>  <inspiration_score>  (315) 
None

>  <tags>  (315) 
BulkDock Fragalysis export,fragmenstein_placed,openbind_a71ev2a_c1_scaffolds,openbind_a71ev2a_c1_knitwork_pure

>  <fragmenstein_outcome>  (315) 
acceptable

>  <fragmenstein_error>  (315) 


>  <distance_score>  (315) 
0.927401

>  <inchikey>  (315) 
NHFWFEZEXIIBII-UHFFFAOYSA-N

>  <name>  (315) 
C69744-P182

>  <HIPPO Pose ID>  (315) 
248625

>  <Energy>  (315) 
65.309629

>  <exports>  (315) 
['/opt/xchem-fragalysis-2/maxwin/BulkDock/OUTPUTS/openbind_a71ev2a_c1_knitwork_pure_165VWF8.sdf', '/opt/xchem-fragalysis-2/maxwin/BulkDock/OUTPUTS/openbind_a71ev2a_c1_knitwork_pure_1B07PTU.sdf', '/opt/xchem-fragalysis-2/maxwin/BulkDock/OUTPUTS/openbind_a71ev2a_c1_knitwork_pure_1B07UWE.sdf', '/opt/xchem-fragalysis-2/maxwin/openbind-hippo/a71ev2a/openbind_a71ev2a_c1_scaffold_products.sdf', '/opt/xchem-fragalysis-2/maxwin/openbind-hippo/a71ev2a/cycle_01/bulkdock/openbind_a71ev2a_c1_scaffold_products.sdf', '/opt/xchem-fragalysis-2/maxwin/openbind-hippo/a71ev2a/cycle_01/bulkdock/openbind_a71ev2a_c1_scaffolds.sdf']

>  <fragmenstein_runtime>  (315) 
10.30822

$$$$
C35464-P248
     RDKit          3D

 19 20  0  0  0  0  0  0  0  0999 V2000
    9.5882   11.8779   22.7249 O   0  0  0  0  0  0  0  0  0  0  0  0
    9.0719   12.6516   23.4202 C   0  0  0  0  0  0  0  0  0  0  0  0
    8.9841   14.1768   23.3157 N   0  0  0  0  0  0  0  0  0  0  0  0
    9.5926   15.0838   22.3852 C   0  0  0  0  0  0  0  0  0  0  0  0
   11.0545   15.3955   22.7626 C   0  0  1  0  0  0  0  0  0  0  0  0
   11.6981   14.2898   23.4091 O   0  0  0  0  0  0  0  0  0  0  0  0
   11.8359   15.7658   21.5135 C   0  0  0  0  0  0  0  0  0  0  0  0
   11.8466   14.6637   20.6208 O   0  0  0  0  0  0  0  0  0  0  0  0
    8.4241   12.1874   24.6972 C   0  0  2  0  0  0  0  0  0  0  0  0
    8.1102   10.7034   24.5288 C   0  0  0  0  0  0  0  0  0  0  0  0
    6.9685   10.4770   25.4502 C   0  0  0  0  0  0  0  0  0  0  0  0
    6.5571    9.3598   25.7002 O   0  0  0  0  0  0  0  0  0  0  0  0
    6.4942   11.7117   25.8834 N   0  0  0  0  0  0  0  0  0  0  0  0
    5.5214   11.8650   26.8575 C   0  0  0  0  0  0  0  0  0  0  0  0
    4.8254   13.0338   27.2429 C   0  0  0  0  0  0  0  0  0  0  0  0
    3.9799   12.8209   28.2567 N   0  0  0  0  0  0  0  0  0  0  0  0
    4.1429   11.5174   28.5316 N   0  0  0  0  0  0  0  0  0  0  0  0
    5.0384   10.9000   27.7114 C   0  0  0  0  0  0  0  0  0  0  0  0
    7.0983   12.7750   25.1185 C   0  0  0  0  0  0  0  0  0  0  0  0
  1  2  2  0
  2  3  1  0
  3  4  1  0
  4  5  1  0
  5  6  1  6
  5  7  1  0
  7  8  1  0
  9  2  1  6
  9 10  1  0
 10 11  1  0
 11 12  2  0
 11 13  1  0
 13 14  1  0
 14 15  1  0
 15 16  2  0
 16 17  1  0
 17 18  1  0
 13 19  1  0
 19  9  1  0
 18 14  2  0
M  END
>  <ref_pdb>  (316) 
A3956a

>  <subsites>  (316) 
1 - Active Site

>  <HIPPO Compound ID>  (316) 
45810

>  <energy_score>  (316) 
-12.377643

>  <fragmenstein_mode>  (316) 
expansion

>  <scratch_subdir>  (316) 
/opt/xchem-fragalysis-2/maxwin/BulkDock/SCRATCH/512173/C35464-P248

>  <smiles>  (316) 
O=C(NC[C@@H](O)CO)[C@@H]1CC(=O)N(c2cn[nH]c2)C1

>  <alias>  (316) 
C35464-P248

>  <ref_mols>  (316) 
A3956a,A0556a

>  <inspiration_score>  (316) 
None

>  <tags>  (316) 
BulkDock Fragalysis export,fragmenstein_placed,openbind_a71ev2a_c1_scaffolds,openbind_a71ev2a_c1_knitwork_pure

>  <fragmenstein_outcome>  (316) 
acceptable

>  <fragmenstein_error>  (316) 


>  <distance_score>  (316) 
0.896522

>  <inchikey>  (316) 
AWLHCXVUPILPTN-UHFFFAOYSA-N

>  <name>  (316) 
C35464-P248

>  <HIPPO Pose ID>  (316) 
248984

>  <Energy>  (316) 
27.547204

>  <exports>  (316) 
['/opt/xchem-fragalysis-2/maxwin/BulkDock/OUTPUTS/openbind_a71ev2a_c1_knitwork_pure_165VWF8.sdf', '/opt/xchem-fragalysis-2/maxwin/BulkDock/OUTPUTS/openbind_a71ev2a_c1_knitwork_pure_1B07PTU.sdf', '/opt/xchem-fragalysis-2/maxwin/BulkDock/OUTPUTS/openbind_a71ev2a_c1_knitwork_pure_1B07UWE.sdf', '/opt/xchem-fragalysis-2/maxwin/openbind-hippo/a71ev2a/openbind_a71ev2a_c1_scaffold_products.sdf', '/opt/xchem-fragalysis-2/maxwin/openbind-hippo/a71ev2a/cycle_01/bulkdock/openbind_a71ev2a_c1_scaffold_products.sdf', '/opt/xchem-fragalysis-2/maxwin/openbind-hippo/a71ev2a/cycle_01/bulkdock/openbind_a71ev2a_c1_scaffolds.sdf']

>  <fragmenstein_runtime>  (316) 
2.21186

$$$$
C35473-P248
     RDKit          3D

 20 22  0  0  0  0  0  0  0  0999 V2000
    9.2472   12.5687   22.6166 O   0  0  0  0  0  0  0  0  0  0  0  0
    8.6285   13.1468   23.4957 C   0  0  0  0  0  0  0  0  0  0  0  0
    8.2471   14.4440   23.4598 O   0  0  0  0  0  0  0  0  0  0  0  0
    8.5552   15.0839   22.2039 C   0  0  0  0  0  0  0  0  0  0  0  0
   10.0110   15.2800   21.9828 C   0  0  0  0  0  0  0  0  0  0  0  0
   10.6554   15.3518   20.7294 C   0  0  0  0  0  0  0  0  0  0  0  0
   11.9668   15.5235   20.8513 N   0  0  0  0  0  0  0  0  0  0  0  0
   12.1834   15.5046   22.1641 N   0  0  0  0  0  0  0  0  0  0  0  0
   11.0448   15.3784   22.9006 C   0  0  0  0  0  0  0  0  0  0  0  0
    8.2838   12.4586   24.7693 C   0  0  2  0  0  0  0  0  0  0  0  0
    8.0889   10.9768   24.4790 C   0  0  0  0  0  0  0  0  0  0  0  0
    7.0355   10.5500   25.4423 C   0  0  0  0  0  0  0  0  0  0  0  0
    6.7427    9.3778   25.5970 O   0  0  0  0  0  0  0  0  0  0  0  0
    6.4912   11.6875   26.0372 N   0  0  0  0  0  0  0  0  0  0  0  0
    5.5278   11.6580   27.0333 C   0  0  0  0  0  0  0  0  0  0  0  0
    4.7800   12.7302   27.5749 C   0  0  0  0  0  0  0  0  0  0  0  0
    3.9528   12.3436   28.5517 N   0  0  0  0  0  0  0  0  0  0  0  0
    4.1825   11.0250   28.6520 N   0  0  0  0  0  0  0  0  0  0  0  0
    5.0977   10.5676   27.7523 C   0  0  0  0  0  0  0  0  0  0  0  0
    6.9713   12.8826   25.3862 C   0  0  0  0  0  0  0  0  0  0  0  0
  1  2  2  0
  2  3  1  0
  3  4  1  0
  4  5  1  0
  5  6  1  0
  6  7  2  0
  7  8  1  0
  8  9  1  0
 10  2  1  6
 10 11  1  0
 11 12  1  0
 12 13  2  0
 12 14  1  0
 14 15  1  0
 15 16  1  0
 16 17  2  0
 17 18  1  0
 18 19  1  0
 14 20  1  0
  9  5  2  0
 20 10  1  0
 19 15  2  0
M  END
>  <ref_pdb>  (317) 
A3956a

>  <subsites>  (317) 
1 - Active Site

>  <HIPPO Compound ID>  (317) 
35473

>  <energy_score>  (317) 
-35.385411

>  <fragmenstein_mode>  (317) 
expansion

>  <scratch_subdir>  (317) 
/opt/xchem-fragalysis-2/maxwin/BulkDock/SCRATCH/512173/C35473-P248

>  <smiles>  (317) 
O=C(OCc1cn[nH]c1)[C@@H]1CC(=O)N(c2cn[nH]c2)C1

>  <alias>  (317) 
C35473-P248

>  <ref_mols>  (317) 
A3956a,A0556a

>  <inspiration_score>  (317) 
None

>  <tags>  (317) 
BulkDock Fragalysis export,fragmenstein_placed,openbind_a71ev2a_c1_scaffolds,openbind_a71ev2a_c1_knitwork_pure

>  <fragmenstein_outcome>  (317) 
acceptable

>  <fragmenstein_error>  (317) 


>  <distance_score>  (317) 
0.958347

>  <inchikey>  (317) 
PLOYGMMNBYFGSF-UHFFFAOYSA-N

>  <name>  (317) 
C35473-P248

>  <HIPPO Pose ID>  (317) 
248992

>  <Energy>  (317) 
-18.631319

>  <exports>  (317) 
['/opt/xchem-fragalysis-2/maxwin/BulkDock/OUTPUTS/openbind_a71ev2a_c1_knitwork_pure_165VWF8.sdf', '/opt/xchem-fragalysis-2/maxwin/BulkDock/OUTPUTS/openbind_a71ev2a_c1_knitwork_pure_1B07PTU.sdf', '/opt/xchem-fragalysis-2/maxwin/BulkDock/OUTPUTS/openbind_a71ev2a_c1_knitwork_pure_1B07UWE.sdf', '/opt/xchem-fragalysis-2/maxwin/openbind-hippo/a71ev2a/openbind_a71ev2a_c1_scaffold_products.sdf', '/opt/xchem-fragalysis-2/maxwin/openbind-hippo/a71ev2a/cycle_01/bulkdock/openbind_a71ev2a_c1_scaffold_products.sdf', '/opt/xchem-fragalysis-2/maxwin/openbind-hippo/a71ev2a/cycle_01/bulkdock/openbind_a71ev2a_c1_scaffolds.sdf']

>  <fragmenstein_runtime>  (317) 
2.39298

$$$$
C54505-P214
     RDKit          3D

 18 19  0  0  0  0  0  0  0  0999 V2000
    6.8478   13.3083   22.4788 O   0  0  0  0  0  0  0  0  0  0  0  0
    7.6124   13.9087   23.1232 C   0  0  0  0  0  0  0  0  0  0  0  0
    7.7776   13.8033   24.6676 C   0  0  0  0  0  0  0  0  0  0  0  0
    7.1665   12.6356   25.3287 N   0  0  0  0  0  0  0  0  0  0  0  0
    5.7328   12.8247   25.5511 C   0  0  0  0  0  0  0  0  0  0  0  0
    5.2079   11.7217   26.4660 C   0  0  0  0  0  0  0  0  0  0  0  0
    5.4633   10.3367   25.8933 C   0  0  0  0  0  0  0  0  0  0  0  0
    6.8803   10.1726   25.3718 C   0  0  0  0  0  0  0  0  0  0  0  0
    7.4314   11.3759   24.6287 C   0  0  0  0  0  0  0  0  0  0  0  0
    8.7399   14.8831   22.6950 N   0  0  0  0  0  0  0  0  0  0  0  0
    9.2152   15.2419   21.3892 C   0  0  0  0  0  0  0  0  0  0  0  0
   10.7425   15.3316   21.4175 C   0  0  0  0  0  0  0  0  0  0  0  0
   11.3693   15.3466   20.0138 C   0  0  0  0  0  0  0  0  0  0  0  0
   10.6280   16.2404   19.0517 C   0  0  0  0  0  0  0  0  0  0  0  0
   11.3498   16.2673   17.8403 O   0  0  0  0  0  0  0  0  0  0  0  0
   11.2851   16.4646   22.3347 C   0  0  0  0  0  0  0  0  0  0  0  0
   12.3029   15.4767   22.9127 C   0  0  0  0  0  0  0  0  0  0  0  0
   11.5085   14.3114   22.3194 C   0  0  0  0  0  0  0  0  0  0  0  0
  1  2  2  0
  2  3  1  0
  3  4  1  0
  4  5  1  0
  5  6  1  0
  6  7  1  0
  7  8  1  0
  8  9  1  0
  2 10  1  0
 10 11  1  0
 11 12  1  0
 12 13  1  0
 13 14  1  0
 14 15  1  0
 12 16  1  0
 16 17  1  0
 17 18  1  0
  9  4  1  0
 18 12  1  0
M  END
>  <ref_pdb>  (318) 
A3550a

>  <subsites>  (318) 
1 - Active Site,6 - A0486/A/147/1

>  <HIPPO Compound ID>  (318) 
101781

>  <energy_score>  (318) 
-13.751277

>  <fragmenstein_mode>  (318) 
expansion

>  <scratch_subdir>  (318) 
/opt/xchem-fragalysis-2/maxwin/BulkDock/SCRATCH/512173/C54505-P214

>  <smiles>  (318) 
O=C(CN1CCCCC1)NCC1(CCO)CCC1

>  <alias>  (318) 
C54505-P214

>  <ref_mols>  (318) 
A3550a,A0608a

>  <inspiration_score>  (318) 
None

>  <tags>  (318) 
BulkDock Fragalysis export,fragmenstein_placed,openbind_a71ev2a_c1_scaffolds,openbind_a71ev2a_c1_knitwork_pure

>  <fragmenstein_outcome>  (318) 
acceptable

>  <fragmenstein_error>  (318) 


>  <distance_score>  (318) 
0.924371

>  <inchikey>  (318) 
ASBBGKVVIBZBJN-UHFFFAOYSA-N

>  <name>  (318) 
C54505-P214

>  <HIPPO Pose ID>  (318) 
249027

>  <Energy>  (318) 
67.029428

>  <exports>  (318) 
['/opt/xchem-fragalysis-2/maxwin/BulkDock/OUTPUTS/openbind_a71ev2a_c1_knitwork_pure_165VWF8.sdf', '/opt/xchem-fragalysis-2/maxwin/BulkDock/OUTPUTS/openbind_a71ev2a_c1_knitwork_pure_1B07PTU.sdf', '/opt/xchem-fragalysis-2/maxwin/BulkDock/OUTPUTS/openbind_a71ev2a_c1_knitwork_pure_1B07UWE.sdf', '/opt/xchem-fragalysis-2/maxwin/openbind-hippo/a71ev2a/openbind_a71ev2a_c1_scaffold_products.sdf', '/opt/xchem-fragalysis-2/maxwin/openbind-hippo/a71ev2a/cycle_01/bulkdock/openbind_a71ev2a_c1_scaffold_products.sdf', '/opt/xchem-fragalysis-2/maxwin/openbind-hippo/a71ev2a/cycle_01/bulkdock/openbind_a71ev2a_c1_scaffolds.sdf']

>  <fragmenstein_runtime>  (318) 
8.137054

$$$$
C101512-P38
     RDKit          3D

 14 15  0  0  0  0  0  0  0  0999 V2000
   12.3644   13.0259   -2.8042 O   0  0  0  0  0  0  0  0  0  0  0  0
   12.0169   12.2898   -1.6419 C   0  0  1  0  0  0  0  0  0  0  0  0
   10.7593   11.4557   -1.8335 C   0  0  0  0  0  0  0  0  0  0  0  0
   10.8097   10.4049   -0.8601 O   0  0  0  0  0  0  0  0  0  0  0  0
   12.1787   10.2565   -0.4389 C   0  0  0  0  0  0  0  0  0  0  0  0
   13.0320   11.1977   -1.2944 C   0  0  2  0  0  0  0  0  0  0  0  0
   14.3146   11.6014   -0.7204 N   0  0  0  0  0  0  0  0  0  0  0  0
   14.2777   12.5716    0.3702 C   0  0  0  0  0  0  0  0  0  0  0  0
   15.5777   12.5463    1.2361 C   0  0  2  0  0  0  0  0  0  0  0  0
   15.7767   13.9124    1.9116 C   0  0  0  0  0  0  0  0  0  0  0  0
   17.0730   13.9693    2.7107 C   0  0  0  0  0  0  0  0  0  0  0  0
   18.2488   13.5367    1.8452 C   0  0  0  0  0  0  0  0  0  0  0  0
   17.9921   12.1727    1.2134 C   0  0  0  0  0  0  0  0  0  0  0  0
   16.7514   12.1325    0.4531 N   0  0  0  0  0  0  0  0  0  0  0  0
  2  1  1  6
  2  3  1  0
  3  4  1  0
  4  5  1  0
  5  6  1  0
  6  7  1  1
  7  8  1  0
  9  8  1  6
  9 10  1  0
 10 11  1  0
 11 12  1  0
 12 13  1  0
 13 14  1  0
  6  2  1  0
 14  9  1  0
M  END
>  <ref_pdb>  (319) 
A0608a

>  <subsites>  (319) 
1 - Active Site,6 - A0486/A/147/1

>  <HIPPO Compound ID>  (319) 
46470

>  <energy_score>  (319) 
-42.971856

>  <fragmenstein_mode>  (319) 
expansion

>  <scratch_subdir>  (319) 
/opt/xchem-fragalysis-2/maxwin/BulkDock/SCRATCH/512173/C101512-P38

>  <smiles>  (319) 
O[C@H]1COC[C@@H]1NC[C@@H]1CCCCN1

>  <alias>  (319) 
C101512-P38

>  <ref_mols>  (319) 
A3550a,A0608a

>  <inspiration_score>  (319) 
None

>  <tags>  (319) 
BulkDock Fragalysis export,fragmenstein_placed,openbind_a71ev2a_c1_scaffolds,openbind_a71ev2a_c1_knitwork_pure

>  <fragmenstein_outcome>  (319) 
acceptable

>  <fragmenstein_error>  (319) 


>  <distance_score>  (319) 
0.397896

>  <inchikey>  (319) 
NEWYPLQNQDROOI-UHFFFAOYSA-N

>  <name>  (319) 
C101512-P38

>  <HIPPO Pose ID>  (319) 
249039

>  <Energy>  (319) 
88.032328

>  <exports>  (319) 
['/opt/xchem-fragalysis-2/maxwin/BulkDock/OUTPUTS/openbind_a71ev2a_c1_knitwork_pure_165VWF8.sdf', '/opt/xchem-fragalysis-2/maxwin/BulkDock/OUTPUTS/openbind_a71ev2a_c1_knitwork_pure_1B07PTU.sdf', '/opt/xchem-fragalysis-2/maxwin/BulkDock/OUTPUTS/openbind_a71ev2a_c1_knitwork_pure_1B07UWE.sdf', '/opt/xchem-fragalysis-2/maxwin/openbind-hippo/a71ev2a/openbind_a71ev2a_c1_scaffold_products.sdf', '/opt/xchem-fragalysis-2/maxwin/openbind-hippo/a71ev2a/cycle_01/bulkdock/openbind_a71ev2a_c1_scaffold_products.sdf', '/opt/xchem-fragalysis-2/maxwin/openbind-hippo/a71ev2a/cycle_01/bulkdock/openbind_a71ev2a_c1_scaffolds.sdf']

>  <fragmenstein_runtime>  (319) 
1.456314

$$$$
C48908-P374
     RDKit          3D

 24 27  0  0  0  0  0  0  0  0999 V2000
   19.2959   13.3781    3.1930 O   0  0  0  0  0  0  0  0  0  0  0  0
   19.6292   14.3898    2.7176 C   0  0  0  0  0  0  0  0  0  0  0  0
   21.0387   14.9776    2.5050 N   0  0  0  0  0  0  0  0  0  0  0  0
   22.3324   14.4065    2.7447 C   0  0  0  0  0  0  0  0  0  0  0  0
   22.8349   13.8195    1.4790 C   0  0  0  0  0  0  0  0  0  0  0  0
   22.2509   13.8521    0.2937 N   0  0  0  0  0  0  0  0  0  0  0  0
   23.0594   13.2016   -0.6073 N   0  0  0  0  0  0  0  0  0  0  0  0
   24.1295   12.7963    0.0372 C   0  0  0  0  0  0  0  0  0  0  0  0
   24.0326   13.1726    1.3495 N   0  0  0  0  0  0  0  0  0  0  0  0
   25.0944   13.0317    2.3213 C   0  0  0  0  0  0  0  0  0  0  0  0
   26.1900   12.0644    1.8646 C   0  0  0  0  0  0  0  0  0  0  0  0
   26.5318   12.2655    0.3864 C   0  0  0  0  0  0  0  0  0  0  0  0
   25.2989   12.0563   -0.4953 C   0  0  0  0  0  0  0  0  0  0  0  0
   18.5969   15.3687    2.2687 C   0  0  0  0  0  0  0  0  0  0  0  0
   18.7586   16.7438    2.2227 C   0  0  0  0  0  0  0  0  0  0  0  0
   17.3751   17.5032    1.5697 S   0  0  0  0  0  0  0  0  0  0  0  0
   16.5931   15.9730    1.4626 C   0  0  0  0  0  0  0  0  0  0  0  0
   15.2114   15.8706    0.8471 C   0  0  0  0  0  0  0  0  0  0  0  0
   14.7403   14.4124    0.7130 C   0  0  0  0  0  0  0  0  0  0  0  0
   14.2537   13.8320    2.0419 C   0  0  0  0  0  0  0  0  0  0  0  0
   13.2005   14.6659    2.6420 N   0  0  0  0  0  0  0  0  0  0  0  0
   13.7169   16.0125    2.9007 C   0  0  0  0  0  0  0  0  0  0  0  0
   14.1527   16.6898    1.6045 C   0  0  0  0  0  0  0  0  0  0  0  0
   17.3147   14.9557    1.8864 N   0  0  0  0  0  0  0  0  0  0  0  0
  1  2  2  0
  2  3  1  0
  3  4  1  0
  4  5  1  0
  5  6  2  0
  6  7  1  0
  7  8  2  0
  8  9  1  0
  9 10  1  0
 10 11  1  0
 11 12  1  0
 12 13  1  0
  2 14  1  0
 14 15  2  0
 15 16  1  0
 16 17  1  0
 17 18  1  0
 18 19  1  0
 19 20  1  0
 20 21  1  0
 21 22  1  0
 22 23  1  0
 17 24  2  0
  9  5  1  0
 24 14  1  0
 13  8  1  0
 23 18  1  0
M  END
>  <ref_pdb>  (320) 
A4463a

>  <subsites>  (320) 
1 - Active Site,6 - A0486/A/147/1

>  <HIPPO Compound ID>  (320) 
47013

>  <energy_score>  (320) 
-40.310042

>  <fragmenstein_mode>  (320) 
expansion

>  <scratch_subdir>  (320) 
/opt/xchem-fragalysis-2/maxwin/BulkDock/SCRATCH/512173/C48908-P374

>  <smiles>  (320) 
O=C(NCc1nnc2n1CCCC2)c1csc(C2CCNCC2)n1

>  <alias>  (320) 
C48908-P374

>  <ref_mols>  (320) 
A0239a,A4463a

>  <inspiration_score>  (320) 
None

>  <tags>  (320) 
BulkDock Fragalysis export,fragmenstein_placed,openbind_a71ev2a_c1_scaffolds,openbind_a71ev2a_c1_knitwork_pure

>  <fragmenstein_outcome>  (320) 
acceptable

>  <fragmenstein_error>  (320) 


>  <distance_score>  (320) 
0.524453

>  <inchikey>  (320) 
FRZNABRJHVHFJE-UHFFFAOYSA-N

>  <name>  (320) 
C48908-P374

>  <HIPPO Pose ID>  (320) 
252033

>  <Energy>  (320) 
16.535658

>  <exports>  (320) 
['/opt/xchem-fragalysis-2/maxwin/BulkDock/OUTPUTS/openbind_a71ev2a_c1_knitwork_pure_165VWF8.sdf', '/opt/xchem-fragalysis-2/maxwin/BulkDock/OUTPUTS/openbind_a71ev2a_c1_knitwork_pure_1B07PTU.sdf', '/opt/xchem-fragalysis-2/maxwin/BulkDock/OUTPUTS/openbind_a71ev2a_c1_knitwork_pure_1B07UWE.sdf', '/opt/xchem-fragalysis-2/maxwin/openbind-hippo/a71ev2a/openbind_a71ev2a_c1_scaffold_products.sdf', '/opt/xchem-fragalysis-2/maxwin/openbind-hippo/a71ev2a/cycle_01/bulkdock/openbind_a71ev2a_c1_scaffold_products.sdf', '/opt/xchem-fragalysis-2/maxwin/openbind-hippo/a71ev2a/cycle_01/bulkdock/openbind_a71ev2a_c1_scaffolds.sdf']

>  <fragmenstein_runtime>  (320) 
3.251207

$$$$
C59012-P256
     RDKit          3D

 19 20  0  0  0  0  0  0  0  0999 V2000
    7.5567   10.4152   25.2344 C   0  0  0  0  0  0  0  0  0  0  0  0
    8.8136   10.3790   24.4202 C   0  0  0  0  0  0  0  0  0  0  0  0
    9.5278    9.3793   24.4154 O   0  0  0  0  0  0  0  0  0  0  0  0
    9.1420   11.6039   23.6128 C   0  0  0  0  0  0  0  0  0  0  0  0
    9.9071   12.9502   24.5417 S   0  0  0  0  0  0  0  0  0  0  0  0
    8.5287   13.6495   25.5013 C   0  0  0  0  0  0  0  0  0  0  0  0
    7.8226   14.8559   24.9042 C   0  0  0  0  0  0  0  0  0  0  0  0
    8.0160   15.9970   25.3150 O   0  0  0  0  0  0  0  0  0  0  0  0
    6.8723   14.5794   23.9377 N   0  0  0  0  0  0  0  0  0  0  0  0
    7.2624   14.6187   22.5424 C   0  0  0  0  0  0  0  0  0  0  0  0
    6.1416   15.0272   21.6092 C   0  0  0  0  0  0  0  0  0  0  0  0
    4.8614   14.2693   21.9295 C   0  0  0  0  0  0  0  0  0  0  0  0
    3.8360   14.4792   20.8718 C   0  0  0  0  0  0  0  0  0  0  0  0
    3.1120   15.5414   20.5756 N   0  0  0  0  0  0  0  0  0  0  0  0
    2.4122   15.1481   19.4558 C   0  0  0  0  0  0  0  0  0  0  0  0
    2.7646   13.8711   19.1023 C   0  0  0  0  0  0  0  0  0  0  0  0
    3.6778   13.4268   20.0052 O   0  0  0  0  0  0  0  0  0  0  0  0
    4.4222   14.6533   23.3348 C   0  0  0  0  0  0  0  0  0  0  0  0
    5.5050   14.2557   24.3390 C   0  0  0  0  0  0  0  0  0  0  0  0
  1  2  1  0
  2  3  2  0
  2  4  1  0
  4  5  1  0
  5  6  1  0
  6  7  1  0
  7  8  2  0
  7  9  1  0
  9 10  1  0
 10 11  1  0
 11 12  1  0
 12 13  1  0
 13 14  2  0
 14 15  1  0
 15 16  2  0
 16 17  1  0
 12 18  1  0
 18 19  1  0
 19  9  1  0
 17 13  1  0
M  END
>  <ref_pdb>  (321) 
A3986a

>  <subsites>  (321) 
1 - Active Site

>  <HIPPO Compound ID>  (321) 
56915

>  <energy_score>  (321) 
-20.931921

>  <fragmenstein_mode>  (321) 
expansion

>  <scratch_subdir>  (321) 
/opt/xchem-fragalysis-2/maxwin/BulkDock/SCRATCH/512173/C59012-P256

>  <smiles>  (321) 
CC(=O)CSCC(=O)N1CCC(c2ncco2)CC1

>  <alias>  (321) 
C59012-P256

>  <ref_mols>  (321) 
A3986a,A3623a

>  <inspiration_score>  (321) 
None

>  <tags>  (321) 
BulkDock Fragalysis export,fragmenstein_placed,openbind_a71ev2a_c1_scaffolds,openbind_a71ev2a_c1_knitwork_pure

>  <fragmenstein_outcome>  (321) 
acceptable

>  <fragmenstein_error>  (321) 


>  <distance_score>  (321) 
0.953177

>  <inchikey>  (321) 
OTMGIRLBTFICTQ-UHFFFAOYSA-N

>  <name>  (321) 
C59012-P256

>  <HIPPO Pose ID>  (321) 
252609

>  <Energy>  (321) 
62.859765

>  <exports>  (321) 
['/opt/xchem-fragalysis-2/maxwin/BulkDock/OUTPUTS/openbind_a71ev2a_c1_knitwork_pure_165VWF8.sdf', '/opt/xchem-fragalysis-2/maxwin/BulkDock/OUTPUTS/openbind_a71ev2a_c1_knitwork_pure_1B07PTU.sdf', '/opt/xchem-fragalysis-2/maxwin/BulkDock/OUTPUTS/openbind_a71ev2a_c1_knitwork_pure_1B07UWE.sdf', '/opt/xchem-fragalysis-2/maxwin/openbind-hippo/a71ev2a/openbind_a71ev2a_c1_scaffold_products.sdf', '/opt/xchem-fragalysis-2/maxwin/openbind-hippo/a71ev2a/cycle_01/bulkdock/openbind_a71ev2a_c1_scaffold_products.sdf', '/opt/xchem-fragalysis-2/maxwin/openbind-hippo/a71ev2a/cycle_01/bulkdock/openbind_a71ev2a_c1_scaffolds.sdf']

>  <fragmenstein_runtime>  (321) 
7.903475

$$$$
C46501-P322
     RDKit          3D

 16 17  0  0  0  0  0  0  0  0999 V2000
    6.0379   13.7062    4.9484 N   0  0  0  0  0  0  0  0  0  0  0  0
    6.9330   13.6562    4.2109 C   0  0  0  0  0  0  0  0  0  0  0  0
    7.9856   13.7109    3.2469 C   0  0  0  0  0  0  0  0  0  0  0  0
    8.8198   14.8254    3.2630 C   0  0  0  0  0  0  0  0  0  0  0  0
    9.7873   15.0671    2.3499 N   0  0  0  0  0  0  0  0  0  0  0  0
    9.8835   14.1707    1.3488 C   0  0  0  0  0  0  0  0  0  0  0  0
    9.0985   13.0283    1.2518 C   0  0  0  0  0  0  0  0  0  0  0  0
    8.1508   12.7418    2.2408 C   0  0  0  0  0  0  0  0  0  0  0  0
    7.3106   11.6337    2.1678 N   0  0  0  0  0  0  0  0  0  0  0  0
    7.4504   10.5401    1.2105 C   0  0  0  0  0  0  0  0  0  0  0  0
    8.7063    9.6690    1.3996 C   0  0  2  0  0  0  0  0  0  0  0  0
    8.6236    8.4512    0.4584 C   0  0  0  0  0  0  0  0  0  0  0  0
    9.7716    7.4742    0.6999 C   0  0  0  0  0  0  0  0  0  0  0  0
    9.8828    7.1074    2.1767 C   0  0  0  0  0  0  0  0  0  0  0  0
   10.0526    8.3128    2.9771 N   0  0  0  0  0  0  0  0  0  0  0  0
    8.8969    9.2081    2.8492 C   0  0  0  0  0  0  0  0  0  0  0  0
  1  2  3  0
  2  3  1  0
  3  4  2  0
  4  5  1  0
  5  6  2  0
  6  7  1  0
  7  8  2  0
  8  9  1  0
  9 10  1  0
 11 10  1  1
 11 12  1  0
 12 13  1  0
 13 14  1  0
 14 15  1  0
 15 16  1  0
  8  3  1  0
 16 11  1  0
M  END
>  <ref_pdb>  (322) 
A4351a

>  <subsites>  (322) 
1 - Active Site,3 - A0541/A/147/1

>  <HIPPO Compound ID>  (322) 
40498

>  <energy_score>  (322) 
-25.753294

>  <fragmenstein_mode>  (322) 
expansion

>  <scratch_subdir>  (322) 
/opt/xchem-fragalysis-2/maxwin/BulkDock/SCRATCH/512173/C46501-P322

>  <smiles>  (322) 
N#Cc1cnccc1NC[C@@H]1CCCNC1

>  <alias>  (322) 
C46501-P322

>  <ref_mols>  (322) 
A4351a,A0428a

>  <inspiration_score>  (322) 
None

>  <tags>  (322) 
BulkDock Fragalysis export,fragmenstein_placed,openbind_a71ev2a_c1_scaffolds,openbind_a71ev2a_c1_knitwork_pure

>  <fragmenstein_outcome>  (322) 
acceptable

>  <fragmenstein_error>  (322) 


>  <distance_score>  (322) 
0.92123

>  <inchikey>  (322) 
NYRUPEKHZSORRF-UHFFFAOYSA-N

>  <name>  (322) 
C46501-P322

>  <HIPPO Pose ID>  (322) 
254641

>  <Energy>  (322) 
40.292112

>  <exports>  (322) 
['/opt/xchem-fragalysis-2/maxwin/BulkDock/OUTPUTS/openbind_a71ev2a_c1_knitwork_pure_165VWF8.sdf', '/opt/xchem-fragalysis-2/maxwin/BulkDock/OUTPUTS/openbind_a71ev2a_c1_knitwork_pure_1B07PTU.sdf', '/opt/xchem-fragalysis-2/maxwin/BulkDock/OUTPUTS/openbind_a71ev2a_c1_knitwork_pure_1B07UWE.sdf', '/opt/xchem-fragalysis-2/maxwin/openbind-hippo/a71ev2a/openbind_a71ev2a_c1_scaffold_products.sdf', '/opt/xchem-fragalysis-2/maxwin/openbind-hippo/a71ev2a/cycle_01/bulkdock/openbind_a71ev2a_c1_scaffold_products.sdf', '/opt/xchem-fragalysis-2/maxwin/openbind-hippo/a71ev2a/cycle_01/bulkdock/openbind_a71ev2a_c1_scaffolds.sdf']

>  <fragmenstein_runtime>  (322) 
1.693471

$$$$
C46024-P325
     RDKit          3D

 19 21  0  0  0  0  0  0  0  0999 V2000
   10.4200   15.7828   19.5544 C   0  0  0  0  0  0  0  0  0  0  0  0
   10.4838   15.1163   20.9255 C   0  0  1  0  0  0  0  0  0  0  0  0
   11.8434   15.3835   21.5727 C   0  0  0  0  0  0  0  0  0  0  0  0
   11.8889   14.7875   22.9726 C   0  0  0  0  0  0  0  0  0  0  0  0
   10.7212   15.3128   23.8037 C   0  0  0  0  0  0  0  0  0  0  0  0
    9.3975   15.0323   23.2253 N   0  0  0  0  0  0  0  0  0  0  0  0
    9.0207   13.6036   23.2440 C   0  0  0  0  0  0  0  0  0  0  0  0
    9.0357   13.0046   24.6471 C   0  0  0  0  0  0  0  0  0  0  0  0
   10.0631   12.7286   25.2658 O   0  0  0  0  0  0  0  0  0  0  0  0
    7.7384   12.7213   25.2861 C   0  0  0  0  0  0  0  0  0  0  0  0
    7.0007   13.8038   25.7881 C   0  0  0  0  0  0  0  0  0  0  0  0
    5.8193   13.5751   26.4901 C   0  0  0  0  0  0  0  0  0  0  0  0
    5.3767   12.2760   26.6325 C   0  0  0  0  0  0  0  0  0  0  0  0
    6.1054   11.2018   26.1224 C   0  0  0  0  0  0  0  0  0  0  0  0
    7.3103   11.3980   25.4615 C   0  0  0  0  0  0  0  0  0  0  0  0
    5.3948    9.9492   26.4897 C   0  0  0  0  0  0  0  0  0  0  0  0
    4.0537   10.4933   26.9963 C   0  0  0  0  0  0  0  0  0  0  0  0
    4.2323   11.9054   27.3902 N   0  0  0  0  0  0  0  0  0  0  0  0
    9.3355   15.5780   21.8472 C   0  0  0  0  0  0  0  0  0  0  0  0
  2  1  1  6
  2  3  1  0
  3  4  1  0
  4  5  1  0
  5  6  1  0
  6  7  1  0
  7  8  1  0
  8  9  2  0
  8 10  1  0
 10 11  2  0
 11 12  1  0
 12 13  2  0
 13 14  1  0
 14 15  2  0
 14 16  1  0
 16 17  1  0
 17 18  1  0
  6 19  1  0
 19  2  1  0
 15 10  1  0
 18 13  1  0
M  END
>  <ref_pdb>  (323) 
A4368a

>  <subsites>  (323) 
1 - Active Site

>  <HIPPO Compound ID>  (323) 
35439

>  <energy_score>  (323) 
-34.512349

>  <fragmenstein_mode>  (323) 
expansion

>  <scratch_subdir>  (323) 
/opt/xchem-fragalysis-2/maxwin/BulkDock/SCRATCH/512173/C46024-P325

>  <smiles>  (323) 
C[C@H]1CCCN(CC(=O)c2ccc3c(c2)CCN3)C1

>  <alias>  (323) 
C46024-P325

>  <ref_mols>  (323) 
A1778a,A4368a

>  <inspiration_score>  (323) 
None

>  <tags>  (323) 
BulkDock Fragalysis export,fragmenstein_placed,openbind_a71ev2a_c1_scaffolds,openbind_a71ev2a_c1_knitwork_pure

>  <fragmenstein_outcome>  (323) 
acceptable

>  <fragmenstein_error>  (323) 


>  <distance_score>  (323) 
0.994811

>  <inchikey>  (323) 
BAUHVGNDLBNYPF-UHFFFAOYSA-N

>  <name>  (323) 
C46024-P325

>  <HIPPO Pose ID>  (323) 
254885

>  <Energy>  (323) 
85.195383

>  <exports>  (323) 
['/opt/xchem-fragalysis-2/maxwin/BulkDock/OUTPUTS/openbind_a71ev2a_c1_knitwork_pure_165VWF8.sdf', '/opt/xchem-fragalysis-2/maxwin/BulkDock/OUTPUTS/openbind_a71ev2a_c1_knitwork_pure_1B07PTU.sdf', '/opt/xchem-fragalysis-2/maxwin/BulkDock/OUTPUTS/openbind_a71ev2a_c1_knitwork_pure_1B07UWE.sdf', '/opt/xchem-fragalysis-2/maxwin/openbind-hippo/a71ev2a/openbind_a71ev2a_c1_scaffold_products.sdf', '/opt/xchem-fragalysis-2/maxwin/openbind-hippo/a71ev2a/cycle_01/bulkdock/openbind_a71ev2a_c1_scaffold_products.sdf', '/opt/xchem-fragalysis-2/maxwin/openbind-hippo/a71ev2a/cycle_01/bulkdock/openbind_a71ev2a_c1_scaffolds.sdf']

>  <fragmenstein_runtime>  (323) 
5.425811

$$$$
C46033-P325
     RDKit          3D

 19 21  0  0  0  0  0  0  0  0999 V2000
   10.6272   15.3877   19.5481 C   0  0  0  0  0  0  0  0  0  0  0  0
   10.5393   14.9418   21.0092 C   0  0  2  0  0  0  0  0  0  0  0  0
    9.3915   15.6617   21.7242 C   0  0  0  0  0  0  0  0  0  0  0  0
    9.4454   15.5885   23.2534 C   0  0  1  0  0  0  0  0  0  0  0  0
    8.5453   14.6348   23.8718 N   0  0  0  0  0  0  0  0  0  0  0  0
    8.8397   13.3192   24.6203 C   0  0  0  0  0  0  0  0  0  0  0  0
    9.8463   12.7555   24.7908 O   0  0  0  0  0  0  0  0  0  0  0  0
    7.5989   12.8114   25.2746 C   0  0  0  0  0  0  0  0  0  0  0  0
    6.7826   13.7114   25.9976 C   0  0  0  0  0  0  0  0  0  0  0  0
    5.6703   13.2619   26.7128 C   0  0  0  0  0  0  0  0  0  0  0  0
    5.4080   11.9127   26.7236 C   0  0  0  0  0  0  0  0  0  0  0  0
    6.1967   11.0345   25.9835 C   0  0  0  0  0  0  0  0  0  0  0  0
    7.3146   11.4478   25.2730 C   0  0  0  0  0  0  0  0  0  0  0  0
    5.6141    9.6801   26.1181 C   0  0  0  0  0  0  0  0  0  0  0  0
    4.6987    9.8630   27.3345 C   0  0  0  0  0  0  0  0  0  0  0  0
    4.3186   11.2877   27.3734 N   0  0  0  0  0  0  0  0  0  0  0  0
   10.8554   15.5711   23.8367 C   0  0  0  0  0  0  0  0  0  0  0  0
   11.8226   14.7350   23.0188 C   0  0  0  0  0  0  0  0  0  0  0  0
   11.8272   15.2268   21.6479 N   0  0  0  0  0  0  0  0  0  0  0  0
  2  1  1  6
  2  3  1  0
  3  4  1  0
  4  5  1  6
  5  6  1  0
  6  7  2  0
  6  8  1  0
  8  9  2  0
  9 10  1  0
 10 11  2  0
 11 12  1  0
 12 13  2  0
 12 14  1  0
 14 15  1  0
 15 16  1  0
  4 17  1  0
 17 18  1  0
 18 19  1  0
 19  2  1  0
 13  8  1  0
 16 11  1  0
M  END
>  <ref_pdb>  (324) 
A4368a

>  <subsites>  (324) 
1 - Active Site

>  <HIPPO Compound ID>  (324) 
26549

>  <energy_score>  (324) 
-16.831638

>  <fragmenstein_mode>  (324) 
expansion

>  <scratch_subdir>  (324) 
/opt/xchem-fragalysis-2/maxwin/BulkDock/SCRATCH/512173/C46033-P325

>  <smiles>  (324) 
C[C@@H]1C[C@@H](NC(=O)c2ccc3c(c2)CCN3)CCN1

>  <alias>  (324) 
C46033-P325

>  <ref_mols>  (324) 
A1778a,A4368a

>  <inspiration_score>  (324) 
None

>  <tags>  (324) 
BulkDock Fragalysis export,fragmenstein_placed,openbind_a71ev2a_c1_scaffolds,openbind_a71ev2a_c1_knitwork_pure

>  <fragmenstein_outcome>  (324) 
acceptable

>  <fragmenstein_error>  (324) 


>  <distance_score>  (324) 
0.940282

>  <inchikey>  (324) 
QEUQYOFEBBDDHZ-UHFFFAOYSA-N

>  <name>  (324) 
C46033-P325

>  <HIPPO Pose ID>  (324) 
254891

>  <Energy>  (324) 
34.936578

>  <exports>  (324) 
['/opt/xchem-fragalysis-2/maxwin/BulkDock/OUTPUTS/openbind_a71ev2a_c1_knitwork_pure_165VWF8.sdf', '/opt/xchem-fragalysis-2/maxwin/BulkDock/OUTPUTS/openbind_a71ev2a_c1_knitwork_pure_1B07PTU.sdf', '/opt/xchem-fragalysis-2/maxwin/BulkDock/OUTPUTS/openbind_a71ev2a_c1_knitwork_pure_1B07UWE.sdf', '/opt/xchem-fragalysis-2/maxwin/openbind-hippo/a71ev2a/openbind_a71ev2a_c1_scaffold_products.sdf', '/opt/xchem-fragalysis-2/maxwin/openbind-hippo/a71ev2a/cycle_01/bulkdock/openbind_a71ev2a_c1_scaffold_products.sdf', '/opt/xchem-fragalysis-2/maxwin/openbind-hippo/a71ev2a/cycle_01/bulkdock/openbind_a71ev2a_c1_scaffolds.sdf']

>  <fragmenstein_runtime>  (324) 
5.396657

$$$$
C45835-P252
     RDKit          3D

 22 24  0  0  0  0  0  0  0  0999 V2000
    5.5459   16.3416   27.6027 C   0  0  0  0  0  0  0  0  0  0  0  0
    5.4961   15.2476   26.6864 O   0  0  0  0  0  0  0  0  0  0  0  0
    6.7251   14.7859   26.3068 C   0  0  0  0  0  0  0  0  0  0  0  0
    7.7871   15.1633   26.7901 O   0  0  0  0  0  0  0  0  0  0  0  0
    6.5638   13.6996   25.2600 C   0  0  2  0  0  0  0  0  0  0  0  0
    6.3363   12.3290   25.9099 C   0  0  0  0  0  0  0  0  0  0  0  0
    7.2842   11.4553   25.1517 C   0  0  0  0  0  0  0  0  0  0  0  0
    7.3853   10.0789   25.1976 C   0  0  0  0  0  0  0  0  0  0  0  0
    8.3938    9.4638   24.4545 C   0  0  0  0  0  0  0  0  0  0  0  0
    9.2836   10.2167   23.6856 C   0  0  0  0  0  0  0  0  0  0  0  0
    9.1656   11.6023   23.6336 C   0  0  0  0  0  0  0  0  0  0  0  0
    8.1379   12.1990   24.3431 C   0  0  0  0  0  0  0  0  0  0  0  0
    7.8316   13.5861   24.4400 N   0  0  0  0  0  0  0  0  0  0  0  0
    7.7151   14.4816   23.0211 S   0  0  0  0  0  0  0  0  0  0  0  0
    6.9797   13.6883   22.0584 O   0  0  0  0  0  0  0  0  0  0  0  0
    7.2666   15.8014   23.4029 O   0  0  0  0  0  0  0  0  0  0  0  0
    9.3060   14.6173   22.4838 N   0  0  0  0  0  0  0  0  0  0  0  0
   10.2901   15.0960   23.4823 C   0  0  0  0  0  0  0  0  0  0  0  0
   11.6878   14.8971   22.9048 C   0  0  0  0  0  0  0  0  0  0  0  0
   11.8539   15.7252   21.6361 C   0  0  0  0  0  0  0  0  0  0  0  0
   10.7853   15.3450   20.6209 C   0  0  0  0  0  0  0  0  0  0  0  0
    9.3897   15.4297   21.2251 C   0  0  0  0  0  0  0  0  0  0  0  0
  1  2  1  0
  2  3  1  0
  3  4  2  0
  5  3  1  1
  5  6  1  0
  6  7  1  0
  7  8  2  0
  8  9  1  0
  9 10  2  0
 10 11  1  0
 11 12  2  0
 12 13  1  0
 13 14  1  0
 14 15  2  0
 14 16  2  0
 14 17  1  0
 17 18  1  0
 18 19  1  0
 19 20  1  0
 20 21  1  0
 21 22  1  0
 13  5  1  0
 22 17  1  0
 12  7  1  0
M  END
>  <ref_pdb>  (325) 
A3975a

>  <subsites>  (325) 
1 - Active Site

>  <HIPPO Compound ID>  (325) 
102808

>  <energy_score>  (325) 
-55.434988

>  <fragmenstein_mode>  (325) 
expansion

>  <scratch_subdir>  (325) 
/opt/xchem-fragalysis-2/maxwin/BulkDock/SCRATCH/512173/C45835-P252

>  <smiles>  (325) 
COC(=O)[C@@H]1Cc2ccccc2N1S(=O)(=O)N1CCCCC1

>  <alias>  (325) 
C45835-P252

>  <ref_mols>  (325) 
A1778a,A3975a

>  <inspiration_score>  (325) 
None

>  <tags>  (325) 
BulkDock Fragalysis export,fragmenstein_placed,openbind_a71ev2a_c1_scaffolds,openbind_a71ev2a_c1_knitwork_pure

>  <fragmenstein_outcome>  (325) 
acceptable

>  <fragmenstein_error>  (325) 


>  <distance_score>  (325) 
0.916481

>  <inchikey>  (325) 
MZJWMOJDYRPWCV-UHFFFAOYSA-N

>  <name>  (325) 
C45835-P252

>  <HIPPO Pose ID>  (325) 
255037

>  <Energy>  (325) 
-106.672863

>  <exports>  (325) 
['/opt/xchem-fragalysis-2/maxwin/BulkDock/OUTPUTS/openbind_a71ev2a_c1_knitwork_pure_165VWF8.sdf', '/opt/xchem-fragalysis-2/maxwin/BulkDock/OUTPUTS/openbind_a71ev2a_c1_knitwork_pure_1B07PTU.sdf', '/opt/xchem-fragalysis-2/maxwin/BulkDock/OUTPUTS/openbind_a71ev2a_c1_knitwork_pure_1B07UWE.sdf', '/opt/xchem-fragalysis-2/maxwin/openbind-hippo/a71ev2a/openbind_a71ev2a_c1_scaffold_products.sdf', '/opt/xchem-fragalysis-2/maxwin/openbind-hippo/a71ev2a/cycle_01/bulkdock/openbind_a71ev2a_c1_scaffold_products.sdf', '/opt/xchem-fragalysis-2/maxwin/openbind-hippo/a71ev2a/cycle_01/bulkdock/openbind_a71ev2a_c1_scaffolds.sdf']

>  <fragmenstein_runtime>  (325) 
138.637508

$$$$
C46024-P303
     RDKit          3D

 19 21  0  0  0  0  0  0  0  0999 V2000
   10.3791   15.2555   19.1124 C   0  0  0  0  0  0  0  0  0  0  0  0
   10.5183   15.2554   20.6319 C   0  0  2  0  0  0  0  0  0  0  0  0
   11.8536   14.6237   21.0143 C   0  0  0  0  0  0  0  0  0  0  0  0
   11.9483   14.1932   22.4672 C   0  0  0  0  0  0  0  0  0  0  0  0
   10.6885   14.4309   23.2588 C   0  0  0  0  0  0  0  0  0  0  0  0
    9.5526   13.8843   22.5359 N   0  0  0  0  0  0  0  0  0  0  0  0
    8.3442   13.7749   23.3541 C   0  0  0  0  0  0  0  0  0  0  0  0
    8.4997   12.7179   24.4457 C   0  0  0  0  0  0  0  0  0  0  0  0
    9.5000   12.0240   24.6164 O   0  0  0  0  0  0  0  0  0  0  0  0
    7.3624   12.5377   25.3802 C   0  0  0  0  0  0  0  0  0  0  0  0
    7.1834   11.2754   25.9789 C   0  0  0  0  0  0  0  0  0  0  0  0
    6.1543   11.0630   26.9010 C   0  0  0  0  0  0  0  0  0  0  0  0
    5.3087   12.1135   27.1926 C   0  0  0  0  0  0  0  0  0  0  0  0
    5.4936   13.3625   26.6042 C   0  0  0  0  0  0  0  0  0  0  0  0
    6.5090   13.5992   25.6979 C   0  0  0  0  0  0  0  0  0  0  0  0
    4.4776   14.3149   27.1304 C   0  0  0  0  0  0  0  0  0  0  0  0
    3.5079   13.3283   27.8037 C   0  0  0  0  0  0  0  0  0  0  0  0
    4.2713   12.1110   28.1532 N   0  0  0  0  0  0  0  0  0  0  0  0
    9.2842   14.6408   21.3104 C   0  0  0  0  0  0  0  0  0  0  0  0
  2  1  1  6
  2  3  1  0
  3  4  1  0
  4  5  1  0
  5  6  1  0
  6  7  1  0
  7  8  1  0
  8  9  2  0
  8 10  1  0
 10 11  2  0
 11 12  1  0
 12 13  2  0
 13 14  1  0
 14 15  2  0
 14 16  1  0
 16 17  1  0
 17 18  1  0
  6 19  1  0
 19  2  1  0
 15 10  1  0
 18 13  1  0
M  END
>  <ref_pdb>  (326) 
A4320a

>  <subsites>  (326) 
1 - Active Site

>  <HIPPO Compound ID>  (326) 
51493

>  <energy_score>  (326) 
-36.417112

>  <fragmenstein_mode>  (326) 
expansion

>  <scratch_subdir>  (326) 
/opt/xchem-fragalysis-2/maxwin/BulkDock/SCRATCH/512035/C46024-P303

>  <smiles>  (326) 
C[C@@H]1CCCN(CC(=O)c2ccc3c(c2)CCN3)C1

>  <alias>  (326) 
C46024-P303

>  <ref_mols>  (326) 
A1778a,A4320a

>  <inspiration_score>  (326) 
None

>  <tags>  (326) 
BulkDock Fragalysis export,fragmenstein_placed,openbind_a71ev2a_c1_scaffolds,openbind_a71ev2a_c1_knitwork_pure

>  <fragmenstein_outcome>  (326) 
acceptable

>  <fragmenstein_error>  (326) 


>  <distance_score>  (326) 
0.913447

>  <inchikey>  (326) 
PQANNCWYAKKWKR-UHFFFAOYSA-N

>  <name>  (326) 
C46024-P303

>  <HIPPO Pose ID>  (326) 
255778

>  <Energy>  (326) 
90.620316

>  <exports>  (326) 
['/opt/xchem-fragalysis-2/maxwin/BulkDock/OUTPUTS/openbind_a71ev2a_c1_knitwork_pure_165VWF8.sdf', '/opt/xchem-fragalysis-2/maxwin/BulkDock/OUTPUTS/openbind_a71ev2a_c1_knitwork_pure_1B07PTU.sdf', '/opt/xchem-fragalysis-2/maxwin/BulkDock/OUTPUTS/openbind_a71ev2a_c1_knitwork_pure_1B07UWE.sdf', '/opt/xchem-fragalysis-2/maxwin/openbind-hippo/a71ev2a/openbind_a71ev2a_c1_scaffold_products.sdf', '/opt/xchem-fragalysis-2/maxwin/openbind-hippo/a71ev2a/cycle_01/bulkdock/openbind_a71ev2a_c1_scaffold_products.sdf', '/opt/xchem-fragalysis-2/maxwin/openbind-hippo/a71ev2a/cycle_01/bulkdock/openbind_a71ev2a_c1_scaffolds.sdf']

>  <fragmenstein_runtime>  (326) 
2.097724

$$$$
C46025-P303
     RDKit          3D

 19 21  0  0  0  0  0  0  0  0999 V2000
   11.5895   13.3216   24.1645 C   0  0  0  0  0  0  0  0  0  0  0  0
   10.9366   14.5277   23.4964 C   0  0  1  0  0  0  0  0  0  0  0  0
   11.8647   15.1095   22.4096 C   0  0  0  0  0  0  0  0  0  0  0  0
   11.5900   14.5254   21.0490 C   0  0  0  0  0  0  0  0  0  0  0  0
   10.1331   14.7242   20.6685 C   0  0  0  0  0  0  0  0  0  0  0  0
    9.2543   15.1569   21.8395 C   0  0  0  0  0  0  0  0  0  0  0  0
    9.5028   14.4126   23.1130 N   0  0  0  0  0  0  0  0  0  0  0  0
    8.9929   13.0475   22.9062 C   0  0  0  0  0  0  0  0  0  0  0  0
    8.7917   12.1477   24.1095 C   0  0  0  0  0  0  0  0  0  0  0  0
    9.4643   11.1181   24.2282 O   0  0  0  0  0  0  0  0  0  0  0  0
    7.6794   12.3481   25.0786 C   0  0  0  0  0  0  0  0  0  0  0  0
    7.3238   11.2268   25.8677 C   0  0  0  0  0  0  0  0  0  0  0  0
    6.2587   11.2688   26.7678 C   0  0  0  0  0  0  0  0  0  0  0  0
    5.5298   12.4329   26.8442 C   0  0  0  0  0  0  0  0  0  0  0  0
    5.8885   13.5523   26.0903 C   0  0  0  0  0  0  0  0  0  0  0  0
    6.9606   13.5371   25.2029 C   0  0  0  0  0  0  0  0  0  0  0  0
    4.9696   14.6741   26.4231 C   0  0  0  0  0  0  0  0  0  0  0  0
    3.8663   13.9199   27.1858 C   0  0  0  0  0  0  0  0  0  0  0  0
    4.4212   12.6448   27.7085 N   0  0  0  0  0  0  0  0  0  0  0  0
  2  1  1  6
  2  3  1  0
  3  4  1  0
  4  5  1  0
  5  6  1  0
  6  7  1  0
  7  8  1  0
  8  9  1  0
  9 10  2  0
  9 11  1  0
 11 12  2  0
 12 13  1  0
 13 14  2  0
 14 15  1  0
 15 16  2  0
 15 17  1  0
 17 18  1  0
 18 19  1  0
  7  2  1  0
 16 11  1  0
 19 14  1  0
M  END
>  <ref_pdb>  (327) 
A4320a

>  <subsites>  (327) 
1 - Active Site

>  <HIPPO Compound ID>  (327) 
55892

>  <energy_score>  (327) 
-56.426291

>  <fragmenstein_mode>  (327) 
expansion

>  <scratch_subdir>  (327) 
/opt/xchem-fragalysis-2/maxwin/BulkDock/SCRATCH/512035/C46025-P303

>  <smiles>  (327) 
C[C@H]1CCCCN1CC(=O)c1ccc2c(c1)CCN2

>  <alias>  (327) 
C46025-P303

>  <ref_mols>  (327) 
A1778a,A4320a

>  <inspiration_score>  (327) 
None

>  <tags>  (327) 
BulkDock Fragalysis export,fragmenstein_placed,openbind_a71ev2a_c1_scaffolds,openbind_a71ev2a_c1_knitwork_pure

>  <fragmenstein_outcome>  (327) 
acceptable

>  <fragmenstein_error>  (327) 


>  <distance_score>  (327) 
0.939749

>  <inchikey>  (327) 
WDXPCDIQYNQRBP-UHFFFAOYSA-N

>  <name>  (327) 
C46025-P303

>  <HIPPO Pose ID>  (327) 
255779

>  <Energy>  (327) 
94.243991

>  <exports>  (327) 
['/opt/xchem-fragalysis-2/maxwin/BulkDock/OUTPUTS/openbind_a71ev2a_c1_knitwork_pure_165VWF8.sdf', '/opt/xchem-fragalysis-2/maxwin/BulkDock/OUTPUTS/openbind_a71ev2a_c1_knitwork_pure_1B07PTU.sdf', '/opt/xchem-fragalysis-2/maxwin/BulkDock/OUTPUTS/openbind_a71ev2a_c1_knitwork_pure_1B07UWE.sdf', '/opt/xchem-fragalysis-2/maxwin/openbind-hippo/a71ev2a/openbind_a71ev2a_c1_scaffold_products.sdf', '/opt/xchem-fragalysis-2/maxwin/openbind-hippo/a71ev2a/cycle_01/bulkdock/openbind_a71ev2a_c1_scaffold_products.sdf', '/opt/xchem-fragalysis-2/maxwin/openbind-hippo/a71ev2a/cycle_01/bulkdock/openbind_a71ev2a_c1_scaffolds.sdf']

>  <fragmenstein_runtime>  (327) 
1.715223

$$$$
C55226-P87
     RDKit          3D

 12 12  0  0  0  0  0  0  0  0999 V2000
   15.5104   11.4597   24.9603 C   0  0  0  0  0  0  0  0  0  0  0  0
   14.0170   10.4922   25.2677 S   0  0  0  0  0  0  0  0  0  0  0  0
   12.7205   11.6016   24.6522 C   0  0  0  0  0  0  0  0  0  0  0  0
   12.5533   12.8420   25.4708 C   0  0  0  0  0  0  0  0  0  0  0  0
   11.1035   13.2070   25.5973 C   0  0  0  0  0  0  0  0  0  0  0  0
   10.4000   13.1863   24.3207 N   0  0  0  0  0  0  0  0  0  0  0  0
    9.0559   13.7203   24.5019 C   0  0  0  0  0  0  0  0  0  0  0  0
    7.8364   12.8873   24.1751 C   0  0  0  0  0  0  0  0  0  0  0  0
    7.5946   11.7995   25.1931 C   0  0  0  0  0  0  0  0  0  0  0  0
    7.9765   10.6380   25.0940 O   0  0  0  0  0  0  0  0  0  0  0  0
   10.5332   11.9251   23.5837 C   0  0  0  0  0  0  0  0  0  0  0  0
   11.3515   10.9177   24.3851 C   0  0  0  0  0  0  0  0  0  0  0  0
  1  2  1  0
  2  3  1  0
  3  4  1  0
  4  5  1  0
  5  6  1  0
  6  7  1  0
  7  8  1  0
  8  9  1  0
  9 10  2  0
  6 11  1  0
 11 12  1  0
 12  3  1  0
M  END
>  <ref_pdb>  (328) 
A0875a

>  <subsites>  (328) 
1 - Active Site

>  <HIPPO Compound ID>  (328) 
46065

>  <energy_score>  (328) 
-4.682291

>  <fragmenstein_mode>  (328) 
expansion

>  <scratch_subdir>  (328) 
/opt/xchem-fragalysis-2/maxwin/BulkDock/SCRATCH/512035/C55226-P87

>  <smiles>  (328) 
CSC1CCN(CCC=O)CC1

>  <alias>  (328) 
C55226-P87

>  <ref_mols>  (328) 
A4237a,A0875a

>  <inspiration_score>  (328) 
None

>  <tags>  (328) 
BulkDock Fragalysis export,fragmenstein_placed,openbind_a71ev2a_c1_scaffolds,openbind_a71ev2a_c1_knitwork_pure

>  <fragmenstein_outcome>  (328) 
acceptable

>  <fragmenstein_error>  (328) 


>  <distance_score>  (328) 
0.92626

>  <inchikey>  (328) 
WTVLMOGGYBHAKC-UHFFFAOYSA-N

>  <name>  (328) 
C55226-P87

>  <HIPPO Pose ID>  (328) 
256452

>  <Energy>  (328) 
37.243983

>  <exports>  (328) 
['/opt/xchem-fragalysis-2/maxwin/BulkDock/OUTPUTS/openbind_a71ev2a_c1_knitwork_pure_165VWF8.sdf', '/opt/xchem-fragalysis-2/maxwin/BulkDock/OUTPUTS/openbind_a71ev2a_c1_knitwork_pure_1B07PTU.sdf', '/opt/xchem-fragalysis-2/maxwin/BulkDock/OUTPUTS/openbind_a71ev2a_c1_knitwork_pure_1B07UWE.sdf', '/opt/xchem-fragalysis-2/maxwin/openbind-hippo/a71ev2a/openbind_a71ev2a_c1_scaffold_products.sdf', '/opt/xchem-fragalysis-2/maxwin/openbind-hippo/a71ev2a/cycle_01/bulkdock/openbind_a71ev2a_c1_scaffold_products.sdf', '/opt/xchem-fragalysis-2/maxwin/openbind-hippo/a71ev2a/cycle_01/bulkdock/openbind_a71ev2a_c1_scaffolds.sdf']

>  <fragmenstein_runtime>  (328) 
1.819443

$$$$
C55237-P87
     RDKit          3D

 13 13  0  0  0  0  0  0  0  0999 V2000
   15.0439   10.9084   25.2181 C   0  0  0  0  0  0  0  0  0  0  0  0
   13.6495   10.5530   25.2884 O   0  0  0  0  0  0  0  0  0  0  0  0
   12.8055   11.5582   24.7190 C   0  0  2  0  0  0  0  0  0  0  0  0
   12.6687   12.7918   25.5676 C   0  0  0  0  0  0  0  0  0  0  0  0
   11.2258   13.1761   25.7945 C   0  0  0  0  0  0  0  0  0  0  0  0
   10.4206   13.2523   24.5891 N   0  0  0  0  0  0  0  0  0  0  0  0
    9.0461   13.6368   24.8189 C   0  0  0  0  0  0  0  0  0  0  0  0
    7.8814   12.7751   24.3613 C   0  0  0  0  0  0  0  0  0  0  0  0
    7.6866   11.5655   25.2323 C   0  0  0  0  0  0  0  0  0  0  0  0
    8.1578   10.4559   25.0107 O   0  0  0  0  0  0  0  0  0  0  0  0
   10.6675   12.2101   23.6095 C   0  0  1  0  0  0  0  0  0  0  0  0
   11.3916   12.9569   22.4868 C   0  0  0  0  0  0  0  0  0  0  0  0
   11.3972   11.0586   24.3129 C   0  0  0  0  0  0  0  0  0  0  0  0
  1  2  1  0
  3  2  1  1
  3  4  1  0
  4  5  1  0
  5  6  1  0
  6  7  1  0
  7  8  1  0
  8  9  1  0
  9 10  2  0
  6 11  1  0
 11 12  1  6
 11 13  1  0
 13  3  1  0
M  END
>  <ref_pdb>  (329) 
A0875a

>  <subsites>  (329) 
1 - Active Site

>  <HIPPO Compound ID>  (329) 
45987

>  <energy_score>  (329) 
-1.113807

>  <fragmenstein_mode>  (329) 
expansion

>  <scratch_subdir>  (329) 
/opt/xchem-fragalysis-2/maxwin/BulkDock/SCRATCH/512035/C55237-P87

>  <smiles>  (329) 
CO[C@@H]1CCN(CCC=O)[C@@H](C)C1

>  <alias>  (329) 
C55237-P87

>  <ref_mols>  (329) 
A4237a,A0875a

>  <inspiration_score>  (329) 
None

>  <tags>  (329) 
BulkDock Fragalysis export,fragmenstein_placed,openbind_a71ev2a_c1_scaffolds,openbind_a71ev2a_c1_knitwork_pure

>  <fragmenstein_outcome>  (329) 
acceptable

>  <fragmenstein_error>  (329) 


>  <distance_score>  (329) 
0.945218

>  <inchikey>  (329) 
YTXBRSZQZDSVHR-UHFFFAOYSA-N

>  <name>  (329) 
C55237-P87

>  <HIPPO Pose ID>  (329) 
256470

>  <Energy>  (329) 
43.915802

>  <exports>  (329) 
['/opt/xchem-fragalysis-2/maxwin/BulkDock/OUTPUTS/openbind_a71ev2a_c1_knitwork_pure_165VWF8.sdf', '/opt/xchem-fragalysis-2/maxwin/BulkDock/OUTPUTS/openbind_a71ev2a_c1_knitwork_pure_1B07PTU.sdf', '/opt/xchem-fragalysis-2/maxwin/BulkDock/OUTPUTS/openbind_a71ev2a_c1_knitwork_pure_1B07UWE.sdf', '/opt/xchem-fragalysis-2/maxwin/openbind-hippo/a71ev2a/openbind_a71ev2a_c1_scaffold_products.sdf', '/opt/xchem-fragalysis-2/maxwin/openbind-hippo/a71ev2a/cycle_01/bulkdock/openbind_a71ev2a_c1_scaffold_products.sdf', '/opt/xchem-fragalysis-2/maxwin/openbind-hippo/a71ev2a/cycle_01/bulkdock/openbind_a71ev2a_c1_scaffolds.sdf']

>  <fragmenstein_runtime>  (329) 
4.789582

$$$$
C12359-P320
     RDKit          3D

 13 13  0  0  0  0  0  0  0  0999 V2000
    7.1563   15.9318   26.4640 C   0  0  0  0  0  0  0  0  0  0  0  0
    7.9781   15.4607   25.2787 C   0  0  0  0  0  0  0  0  0  0  0  0
    7.0934   15.0618   24.1019 C   0  0  0  0  0  0  0  0  0  0  0  0
    7.9308   13.9547   22.9717 S   0  0  0  0  0  0  0  0  0  0  0  0
    8.9669   14.7145   22.3082 O   0  0  0  0  0  0  0  0  0  0  0  0
    6.9776   13.1926   22.1997 O   0  0  0  0  0  0  0  0  0  0  0  0
    8.7481   12.8558   23.9724 N   0  0  0  0  0  0  0  0  0  0  0  0
    8.0410   11.8302   24.6937 C   0  0  0  0  0  0  0  0  0  0  0  0
    7.0472   12.1220   25.6274 C   0  0  0  0  0  0  0  0  0  0  0  0
    6.4221   11.1130   26.3559 C   0  0  0  0  0  0  0  0  0  0  0  0
    6.8326    9.8179   26.1466 C   0  0  0  0  0  0  0  0  0  0  0  0
    7.8216    9.4851   25.2936 N   0  0  0  0  0  0  0  0  0  0  0  0
    8.3995   10.4920   24.5819 C   0  0  0  0  0  0  0  0  0  0  0  0
  1  2  1  0
  2  3  1  0
  3  4  1  0
  4  5  2  0
  4  6  2  0
  4  7  1  0
  7  8  1  0
  8  9  2  0
  9 10  1  0
 10 11  2  0
 11 12  1  0
 12 13  2  0
 13  8  1  0
M  END
>  <ref_pdb>  (330) 
A4347a

>  <subsites>  (330) 
1 - Active Site

>  <HIPPO Compound ID>  (330) 
51490

>  <energy_score>  (330) 
-22.928275

>  <fragmenstein_mode>  (330) 
expansion

>  <scratch_subdir>  (330) 
/opt/xchem-fragalysis-2/maxwin/BulkDock/SCRATCH/512035/C12359-P320

>  <smiles>  (330) 
CCCS(=O)(=O)Nc1cccnc1

>  <alias>  (330) 
C12359-P320

>  <ref_mols>  (330) 
A4347a,A0719a

>  <inspiration_score>  (330) 
None

>  <tags>  (330) 
BulkDock Fragalysis export,fragmenstein_placed,openbind_a71ev2a_c1_scaffolds,openbind_a71ev2a_c1_knitwork_pure

>  <fragmenstein_outcome>  (330) 
acceptable

>  <fragmenstein_error>  (330) 


>  <distance_score>  (330) 
0.910691

>  <inchikey>  (330) 
MJMCOCNIQIOMAD-UHFFFAOYSA-N

>  <name>  (330) 
C12359-P320

>  <HIPPO Pose ID>  (330) 
258290

>  <Energy>  (330) 
-16.265838

>  <exports>  (330) 
['/opt/xchem-fragalysis-2/maxwin/BulkDock/OUTPUTS/openbind_a71ev2a_c1_knitwork_pure_165VWF8.sdf', '/opt/xchem-fragalysis-2/maxwin/BulkDock/OUTPUTS/openbind_a71ev2a_c1_knitwork_pure_1B07PTU.sdf', '/opt/xchem-fragalysis-2/maxwin/BulkDock/OUTPUTS/openbind_a71ev2a_c1_knitwork_pure_1B07UWE.sdf', '/opt/xchem-fragalysis-2/maxwin/openbind-hippo/a71ev2a/openbind_a71ev2a_c1_scaffold_products.sdf', '/opt/xchem-fragalysis-2/maxwin/openbind-hippo/a71ev2a/cycle_01/bulkdock/openbind_a71ev2a_c1_scaffold_products.sdf', '/opt/xchem-fragalysis-2/maxwin/openbind-hippo/a71ev2a/cycle_01/bulkdock/openbind_a71ev2a_c1_scaffolds.sdf']

>  <fragmenstein_runtime>  (330) 
1.543748

$$$$
C37158-P124
     RDKit          3D

 16 18  0  0  0  0  0  0  0  0999 V2000
   10.2288    8.4209   23.0509 Br  0  0  0  0  0  0  0  0  0  0  0  0
   10.0979   10.1203   23.7900 C   0  0  0  0  0  0  0  0  0  0  0  0
   11.1606   10.9963   23.6114 C   0  0  0  0  0  0  0  0  0  0  0  0
   11.1207   12.2361   24.2171 C   0  0  0  0  0  0  0  0  0  0  0  0
    9.9612   12.6136   24.8601 C   0  0  0  0  0  0  0  0  0  0  0  0
    8.9097   11.7226   25.0756 C   0  0  0  0  0  0  0  0  0  0  0  0
    8.9818   10.4559   24.5485 C   0  0  0  0  0  0  0  0  0  0  0  0
    7.9358   12.2539   25.9258 N   0  0  0  0  0  0  0  0  0  0  0  0
    6.5514   11.8083   25.8298 C   0  0  0  0  0  0  0  0  0  0  0  0
    5.5318   12.5111   26.6893 C   0  0  0  0  0  0  0  0  0  0  0  0
    4.7546   13.6090   26.3707 C   0  0  0  0  0  0  0  0  0  0  0  0
    3.9893   13.8514   27.4762 N   0  0  0  0  0  0  0  0  0  0  0  0
    4.3149   12.9112   28.4118 C   0  0  0  0  0  0  0  0  0  0  0  0
    5.2374   12.0871   27.9694 N   0  0  0  0  0  0  0  0  0  0  0  0
    8.1734   13.6957   25.8581 C   0  0  0  0  0  0  0  0  0  0  0  0
    9.6337   13.9323   25.4609 C   0  0  0  0  0  0  0  0  0  0  0  0
  1  2  1  0
  2  3  2  0
  3  4  1  0
  4  5  2  0
  5  6  1  0
  6  7  2  0
  6  8  1  0
  8  9  1  0
  9 10  1  0
 10 11  2  0
 11 12  1  0
 12 13  1  0
 13 14  2  0
  8 15  1  0
 15 16  1  0
  7  2  1  0
 14 10  1  0
 16  5  1  0
M  END
>  <ref_pdb>  (331) 
A1778a

>  <subsites>  (331) 
1 - Active Site

>  <HIPPO Compound ID>  (331) 
35612

>  <energy_score>  (331) 
-13.595176

>  <fragmenstein_mode>  (331) 
expansion

>  <scratch_subdir>  (331) 
/opt/xchem-fragalysis-2/maxwin/BulkDock/SCRATCH/511237/C37158-P124

>  <smiles>  (331) 
Brc1ccc2c(c1)N(Cc1c[nH]cn1)CC2

>  <alias>  (331) 
C37158-P124

>  <ref_mols>  (331) 
A2972a,A1778a

>  <inspiration_score>  (331) 
None

>  <tags>  (331) 
BulkDock Fragalysis export,fragmenstein_placed,openbind_a71ev2a_c1_scaffolds,openbind_a71ev2a_c1_knitwork_pure

>  <fragmenstein_outcome>  (331) 
acceptable

>  <fragmenstein_error>  (331) 


>  <distance_score>  (331) 
0.914892

>  <inchikey>  (331) 
QUWCTZUWOPCIPH-UHFFFAOYSA-N

>  <name>  (331) 
C37158-P124

>  <HIPPO Pose ID>  (331) 
259606

>  <Energy>  (331) 
51.314917

>  <exports>  (331) 
['/opt/xchem-fragalysis-2/maxwin/BulkDock/OUTPUTS/openbind_a71ev2a_c1_knitwork_pure_165VWF8.sdf', '/opt/xchem-fragalysis-2/maxwin/BulkDock/OUTPUTS/openbind_a71ev2a_c1_knitwork_pure_1B07PTU.sdf', '/opt/xchem-fragalysis-2/maxwin/BulkDock/OUTPUTS/openbind_a71ev2a_c1_knitwork_pure_1B07UWE.sdf', '/opt/xchem-fragalysis-2/maxwin/openbind-hippo/a71ev2a/openbind_a71ev2a_c1_scaffold_products.sdf', '/opt/xchem-fragalysis-2/maxwin/openbind-hippo/a71ev2a/cycle_01/bulkdock/openbind_a71ev2a_c1_scaffold_products.sdf', '/opt/xchem-fragalysis-2/maxwin/openbind-hippo/a71ev2a/cycle_01/bulkdock/openbind_a71ev2a_c1_scaffolds.sdf']

>  <fragmenstein_runtime>  (331) 
1.543306

$$$$
C37167-P124
     RDKit          3D

 19 21  0  0  0  0  0  0  0  0999 V2000
   10.4592    8.1673   23.5253 C   0  0  0  0  0  0  0  0  0  0  0  0
    9.9819    9.2287   22.7302 O   0  0  0  0  0  0  0  0  0  0  0  0
   10.0295   10.3557   23.4926 C   0  0  0  0  0  0  0  0  0  0  0  0
   11.1583   11.1596   23.3836 C   0  0  0  0  0  0  0  0  0  0  0  0
   11.2504   12.2891   24.1728 C   0  0  0  0  0  0  0  0  0  0  0  0
   10.1397   12.6776   24.8976 C   0  0  0  0  0  0  0  0  0  0  0  0
    9.0252   11.8551   25.0200 C   0  0  0  0  0  0  0  0  0  0  0  0
    8.9830   10.6539   24.3627 C   0  0  0  0  0  0  0  0  0  0  0  0
    8.1966   12.3454   26.0646 N   0  0  0  0  0  0  0  0  0  0  0  0
    6.5383   12.1235   26.1260 S   0  0  0  0  0  0  0  0  0  0  0  0
    6.0838   12.6383   27.4053 O   0  0  0  0  0  0  0  0  0  0  0  0
    6.2127   10.7763   25.7254 O   0  0  0  0  0  0  0  0  0  0  0  0
    5.8271   13.2419   24.9828 C   0  0  0  0  0  0  0  0  0  0  0  0
    4.6526   13.9513   25.1507 C   0  0  0  0  0  0  0  0  0  0  0  0
    4.5713   14.7678   24.0561 N   0  0  0  0  0  0  0  0  0  0  0  0
    5.7091   14.5881   23.3187 C   0  0  0  0  0  0  0  0  0  0  0  0
    6.5091   13.6978   23.8593 N   0  0  0  0  0  0  0  0  0  0  0  0
    8.5999   13.7389   26.3224 C   0  0  0  0  0  0  0  0  0  0  0  0
    9.9540   13.9432   25.6593 C   0  0  0  0  0  0  0  0  0  0  0  0
  1  2  1  0
  2  3  1  0
  3  4  2  0
  4  5  1  0
  5  6  2  0
  6  7  1  0
  7  8  2  0
  7  9  1  0
  9 10  1  0
 10 11  2  0
 10 12  2  0
 10 13  1  0
 13 14  2  0
 14 15  1  0
 15 16  1  0
 16 17  2  0
  9 18  1  0
 18 19  1  0
  8  3  1  0
 17 13  1  0
 19  6  1  0
M  END
>  <ref_pdb>  (332) 
A1778a

>  <subsites>  (332) 
1 - Active Site

>  <HIPPO Compound ID>  (332) 
21631

>  <energy_score>  (332) 
-26.697906

>  <fragmenstein_mode>  (332) 
expansion

>  <scratch_subdir>  (332) 
/opt/xchem-fragalysis-2/maxwin/BulkDock/SCRATCH/511237/C37167-P124

>  <smiles>  (332) 
COc1ccc2c(c1)N(S(=O)(=O)c1c[nH]cn1)CC2

>  <alias>  (332) 
C37167-P124

>  <ref_mols>  (332) 
A2972a,A1778a

>  <inspiration_score>  (332) 
None

>  <tags>  (332) 
BulkDock Fragalysis export,fragmenstein_placed,openbind_a71ev2a_c1_scaffolds,openbind_a71ev2a_c1_knitwork_pure

>  <fragmenstein_outcome>  (332) 
acceptable

>  <fragmenstein_error>  (332) 


>  <distance_score>  (332) 
0.907192

>  <inchikey>  (332) 
AERCOVUKSAMYCJ-UHFFFAOYSA-N

>  <name>  (332) 
C37167-P124

>  <HIPPO Pose ID>  (332) 
259612

>  <Energy>  (332) 
87.633096

>  <exports>  (332) 
['/opt/xchem-fragalysis-2/maxwin/BulkDock/OUTPUTS/openbind_a71ev2a_c1_knitwork_pure_165VWF8.sdf', '/opt/xchem-fragalysis-2/maxwin/BulkDock/OUTPUTS/openbind_a71ev2a_c1_knitwork_pure_1B07PTU.sdf', '/opt/xchem-fragalysis-2/maxwin/BulkDock/OUTPUTS/openbind_a71ev2a_c1_knitwork_pure_1B07UWE.sdf', '/opt/xchem-fragalysis-2/maxwin/openbind-hippo/a71ev2a/openbind_a71ev2a_c1_scaffold_products.sdf', '/opt/xchem-fragalysis-2/maxwin/openbind-hippo/a71ev2a/cycle_01/bulkdock/openbind_a71ev2a_c1_scaffold_products.sdf', '/opt/xchem-fragalysis-2/maxwin/openbind-hippo/a71ev2a/cycle_01/bulkdock/openbind_a71ev2a_c1_scaffolds.sdf']

>  <fragmenstein_runtime>  (332) 
2.40113

$$$$
C37174-P124
     RDKit          3D

 19 21  0  0  0  0  0  0  0  0999 V2000
   10.2778    7.7259   22.9865 N   0  0  0  0  0  0  0  0  0  0  0  0
   10.1040    8.8120   23.3296 C   0  0  0  0  0  0  0  0  0  0  0  0
   10.0161   10.1425   23.7925 C   0  0  0  0  0  0  0  0  0  0  0  0
   11.1089   10.9808   23.5677 C   0  0  0  0  0  0  0  0  0  0  0  0
   11.1511   12.2193   24.1772 C   0  0  0  0  0  0  0  0  0  0  0  0
   10.0443   12.6444   24.8836 C   0  0  0  0  0  0  0  0  0  0  0  0
    8.9509   11.8107   25.0906 C   0  0  0  0  0  0  0  0  0  0  0  0
    8.9348   10.5386   24.5758 C   0  0  0  0  0  0  0  0  0  0  0  0
    8.1288   12.3542   26.1117 N   0  0  0  0  0  0  0  0  0  0  0  0
    6.4661   12.1556   26.1558 S   0  0  0  0  0  0  0  0  0  0  0  0
    6.0016   12.7052   27.4161 O   0  0  0  0  0  0  0  0  0  0  0  0
    6.1347   10.8027   25.7782 O   0  0  0  0  0  0  0  0  0  0  0  0
    5.7962   13.2558   24.9710 C   0  0  0  0  0  0  0  0  0  0  0  0
    4.6292   13.9869   25.0892 C   0  0  0  0  0  0  0  0  0  0  0  0
    4.5904   14.7751   23.9709 N   0  0  0  0  0  0  0  0  0  0  0  0
    5.7469   14.5621   23.2724 C   0  0  0  0  0  0  0  0  0  0  0  0
    6.5166   13.6720   23.8556 N   0  0  0  0  0  0  0  0  0  0  0  0
    8.5507   13.7492   26.3242 C   0  0  0  0  0  0  0  0  0  0  0  0
    9.8716   13.9418   25.5921 C   0  0  0  0  0  0  0  0  0  0  0  0
  1  2  3  0
  2  3  1  0
  3  4  2  0
  4  5  1  0
  5  6  2  0
  6  7  1  0
  7  8  2  0
  7  9  1  0
  9 10  1  0
 10 11  2  0
 10 12  2  0
 10 13  1  0
 13 14  2  0
 14 15  1  0
 15 16  1  0
 16 17  2  0
  9 18  1  0
 18 19  1  0
  8  3  1  0
 17 13  1  0
 19  6  1  0
M  END
>  <ref_pdb>  (333) 
A1778a

>  <subsites>  (333) 
1 - Active Site

>  <HIPPO Compound ID>  (333) 
46544

>  <energy_score>  (333) 
-26.481041

>  <fragmenstein_mode>  (333) 
expansion

>  <scratch_subdir>  (333) 
/opt/xchem-fragalysis-2/maxwin/BulkDock/SCRATCH/511237/C37174-P124

>  <smiles>  (333) 
N#Cc1ccc2c(c1)N(S(=O)(=O)c1c[nH]cn1)CC2

>  <alias>  (333) 
C37174-P124

>  <ref_mols>  (333) 
A2972a,A1778a

>  <inspiration_score>  (333) 
None

>  <tags>  (333) 
BulkDock Fragalysis export,fragmenstein_placed,openbind_a71ev2a_c1_scaffolds,openbind_a71ev2a_c1_knitwork_pure

>  <fragmenstein_outcome>  (333) 
acceptable

>  <fragmenstein_error>  (333) 


>  <distance_score>  (333) 
0.856171

>  <inchikey>  (333) 
QFIAQCXWMHUYLP-UHFFFAOYSA-N

>  <name>  (333) 
C37174-P124

>  <HIPPO Pose ID>  (333) 
259622

>  <Energy>  (333) 
88.080358

>  <exports>  (333) 
['/opt/xchem-fragalysis-2/maxwin/BulkDock/OUTPUTS/openbind_a71ev2a_c1_knitwork_pure_165VWF8.sdf', '/opt/xchem-fragalysis-2/maxwin/BulkDock/OUTPUTS/openbind_a71ev2a_c1_knitwork_pure_1B07PTU.sdf', '/opt/xchem-fragalysis-2/maxwin/BulkDock/OUTPUTS/openbind_a71ev2a_c1_knitwork_pure_1B07UWE.sdf', '/opt/xchem-fragalysis-2/maxwin/openbind-hippo/a71ev2a/openbind_a71ev2a_c1_scaffold_products.sdf', '/opt/xchem-fragalysis-2/maxwin/openbind-hippo/a71ev2a/cycle_01/bulkdock/openbind_a71ev2a_c1_scaffold_products.sdf', '/opt/xchem-fragalysis-2/maxwin/openbind-hippo/a71ev2a/cycle_01/bulkdock/openbind_a71ev2a_c1_scaffolds.sdf']

>  <fragmenstein_runtime>  (333) 
2.398833

$$$$
C46502-P159
     RDKit          3D

 16 17  0  0  0  0  0  0  0  0999 V2000
    6.3271   14.3027   22.4729 C   0  0  0  0  0  0  0  0  0  0  0  0
    7.5400   13.5922   22.9029 N   0  0  0  0  0  0  0  0  0  0  0  0
    7.4618   12.7621   24.0374 C   0  0  0  0  0  0  0  0  0  0  0  0
    6.2822   12.7277   24.8089 C   0  0  0  0  0  0  0  0  0  0  0  0
    6.1340   11.8413   25.8683 C   0  0  0  0  0  0  0  0  0  0  0  0
    7.0588   10.9383   26.2167 N   0  0  0  0  0  0  0  0  0  0  0  0
    8.1998   10.9802   25.5093 C   0  0  0  0  0  0  0  0  0  0  0  0
    8.4675   11.8813   24.4822 C   0  0  0  0  0  0  0  0  0  0  0  0
    9.8301   11.8985   24.0823 C   0  0  0  0  0  0  0  0  0  0  0  0
   10.9775   11.9856   23.9379 N   0  0  0  0  0  0  0  0  0  0  0  0
    8.8434   14.0565   22.3545 C   0  0  2  0  0  0  0  0  0  0  0  0
    9.6268   14.9092   23.3502 C   0  0  0  0  0  0  0  0  0  0  0  0
   11.0148   15.1930   22.7829 C   0  0  0  0  0  0  0  0  0  0  0  0
   10.9843   15.7830   21.3774 C   0  0  0  0  0  0  0  0  0  0  0  0
   10.1098   15.0618   20.4619 N   0  0  0  0  0  0  0  0  0  0  0  0
    8.7803   14.8887   21.0541 C   0  0  0  0  0  0  0  0  0  0  0  0
  1  2  1  0
  2  3  1  0
  3  4  2  0
  4  5  1  0
  5  6  2  0
  6  7  1  0
  7  8  2  0
  8  9  1  0
  9 10  3  0
 11  2  1  1
 11 12  1  0
 12 13  1  0
 13 14  1  0
 14 15  1  0
 15 16  1  0
  8  3  1  0
 16 11  1  0
M  END
>  <ref_pdb>  (334) 
A3223a

>  <subsites>  (334) 
1 - Active Site

>  <HIPPO Compound ID>  (334) 
54511

>  <energy_score>  (334) 
-23.321177

>  <fragmenstein_mode>  (334) 
expansion

>  <scratch_subdir>  (334) 
/opt/xchem-fragalysis-2/maxwin/BulkDock/SCRATCH/511237/C46502-P159

>  <smiles>  (334) 
CN(c1ccncc1C#N)[C@@H]1CCCNC1

>  <alias>  (334) 
C46502-P159

>  <ref_mols>  (334) 
A3223a,A2629a

>  <inspiration_score>  (334) 
None

>  <tags>  (334) 
BulkDock Fragalysis export,fragmenstein_placed,openbind_a71ev2a_c1_scaffolds,openbind_a71ev2a_c1_knitwork_pure

>  <fragmenstein_outcome>  (334) 
acceptable

>  <fragmenstein_error>  (334) 


>  <distance_score>  (334) 
0.850591

>  <inchikey>  (334) 
AGNKHDPFSMAPGP-UHFFFAOYSA-N

>  <name>  (334) 
C46502-P159

>  <HIPPO Pose ID>  (334) 
259703

>  <Energy>  (334) 
87.460438

>  <exports>  (334) 
['/opt/xchem-fragalysis-2/maxwin/BulkDock/OUTPUTS/openbind_a71ev2a_c1_knitwork_pure_165VWF8.sdf', '/opt/xchem-fragalysis-2/maxwin/BulkDock/OUTPUTS/openbind_a71ev2a_c1_knitwork_pure_1B07PTU.sdf', '/opt/xchem-fragalysis-2/maxwin/BulkDock/OUTPUTS/openbind_a71ev2a_c1_knitwork_pure_1B07UWE.sdf', '/opt/xchem-fragalysis-2/maxwin/openbind-hippo/a71ev2a/openbind_a71ev2a_c1_scaffold_products.sdf', '/opt/xchem-fragalysis-2/maxwin/openbind-hippo/a71ev2a/cycle_01/bulkdock/openbind_a71ev2a_c1_scaffold_products.sdf', '/opt/xchem-fragalysis-2/maxwin/openbind-hippo/a71ev2a/cycle_01/bulkdock/openbind_a71ev2a_c1_scaffolds.sdf']

>  <fragmenstein_runtime>  (334) 
1.917227

$$$$
C48482-P487
     RDKit          3D

 23 25  0  0  0  0  0  0  0  0999 V2000
    6.4585   14.0142   22.5599 C   0  0  0  0  0  0  0  0  0  0  0  0
    7.6511   13.3050   23.1907 C   0  0  1  0  0  0  0  0  0  0  0  0
    8.8165   14.1429   23.0291 N   0  0  0  0  0  0  0  0  0  0  0  0
   10.2945   13.9198   23.4771 C   0  0  0  0  0  0  0  0  0  0  0  0
   10.7730   13.0595   24.1117 O   0  0  0  0  0  0  0  0  0  0  0  0
   11.1074   15.1112   22.9764 C   0  0  0  0  0  0  0  0  0  0  0  0
   11.0559   15.2475   21.5373 N   0  0  0  0  0  0  0  0  0  0  0  0
   10.1639   15.9856   20.8107 C   0  0  0  0  0  0  0  0  0  0  0  0
   10.3331   15.5888   19.5080 C   0  0  0  0  0  0  0  0  0  0  0  0
   11.4458   14.7436   19.5328 C   0  0  0  0  0  0  0  0  0  0  0  0
   11.8932   14.5410   20.7711 N   0  0  0  0  0  0  0  0  0  0  0  0
    7.4883   12.8432   24.6574 C   0  0  0  0  0  0  0  0  0  0  0  0
    7.9905   11.3911   24.8243 C   0  0  0  0  0  0  0  0  0  0  0  0
    6.9971   10.4745   25.5212 C   0  0  0  0  0  0  0  0  0  0  0  0
    6.4751   11.0710   26.7424 N   0  0  0  0  0  0  0  0  0  0  0  0
    5.5348   10.2729   27.4045 C   0  0  0  0  0  0  0  0  0  0  0  0
    4.7231    9.4731   26.6967 N   0  0  0  0  0  0  0  0  0  0  0  0
    3.8361    8.7140   27.3744 C   0  0  0  0  0  0  0  0  0  0  0  0
    3.7131    8.7319   28.7362 C   0  0  0  0  0  0  0  0  0  0  0  0
    4.5699    9.5898   29.3752 C   0  0  0  0  0  0  0  0  0  0  0  0
    5.4670   10.3755   28.7420 N   0  0  0  0  0  0  0  0  0  0  0  0
    6.0167   12.4579   26.6790 C   0  0  0  0  0  0  0  0  0  0  0  0
    6.0903   13.0233   25.2594 C   0  0  0  0  0  0  0  0  0  0  0  0
  2  1  1  1
  2  3  1  0
  3  4  1  0
  4  5  2  0
  4  6  1  0
  6  7  1  0
  7  8  1  0
  8  9  2  0
  9 10  1  0
 10 11  2  0
  2 12  1  0
 12 13  1  0
 13 14  1  0
 14 15  1  0
 15 16  1  0
 16 17  2  0
 17 18  1  0
 18 19  2  0
 19 20  1  0
 20 21  2  0
 15 22  1  0
 22 23  1  0
 11  7  1  0
 23 12  1  0
 21 16  1  0
M  END
>  <ref_pdb>  (335) 
A4846a

>  <subsites>  (335) 
1 - Active Site

>  <HIPPO Compound ID>  (335) 
46596

>  <energy_score>  (335) 
-7.283953

>  <fragmenstein_mode>  (335) 
expansion

>  <scratch_subdir>  (335) 
/opt/xchem-fragalysis-2/maxwin/BulkDock/SCRATCH/511237/C48482-P487

>  <smiles>  (335) 
C[C@@H](NC(=O)Cn1cccn1)C1CCN(c2ncccn2)CC1

>  <alias>  (335) 
C48482-P487

>  <ref_mols>  (335) 
A0556a,A4846a

>  <inspiration_score>  (335) 
None

>  <tags>  (335) 
BulkDock Fragalysis export,fragmenstein_placed,openbind_a71ev2a_c1_scaffolds,openbind_a71ev2a_c1_knitwork_pure

>  <fragmenstein_outcome>  (335) 
acceptable

>  <fragmenstein_error>  (335) 


>  <distance_score>  (335) 
0.925535

>  <inchikey>  (335) 
IGUBAEGLTUZHCE-UHFFFAOYSA-N

>  <name>  (335) 
C48482-P487

>  <HIPPO Pose ID>  (335) 
262775

>  <Energy>  (335) 
-21.228577

>  <exports>  (335) 
['/opt/xchem-fragalysis-2/maxwin/BulkDock/OUTPUTS/openbind_a71ev2a_c1_knitwork_pure_165VWF8.sdf', '/opt/xchem-fragalysis-2/maxwin/BulkDock/OUTPUTS/openbind_a71ev2a_c1_knitwork_pure_1B07PTU.sdf', '/opt/xchem-fragalysis-2/maxwin/BulkDock/OUTPUTS/openbind_a71ev2a_c1_knitwork_pure_1B07UWE.sdf', '/opt/xchem-fragalysis-2/maxwin/openbind-hippo/a71ev2a/openbind_a71ev2a_c1_scaffold_products.sdf', '/opt/xchem-fragalysis-2/maxwin/openbind-hippo/a71ev2a/cycle_01/bulkdock/openbind_a71ev2a_c1_scaffold_products.sdf', '/opt/xchem-fragalysis-2/maxwin/openbind-hippo/a71ev2a/cycle_01/bulkdock/openbind_a71ev2a_c1_scaffolds.sdf']

>  <fragmenstein_runtime>  (335) 
7.314222

$$$$
C48489-P487
     RDKit          3D

 20 21  0  0  0  0  0  0  0  0999 V2000
    6.4388   14.3310   22.4532 C   0  0  0  0  0  0  0  0  0  0  0  0
    7.4120   13.2970   22.9908 C   0  0  1  0  0  0  0  0  0  0  0  0
    8.7197   13.8491   23.1522 N   0  0  0  0  0  0  0  0  0  0  0  0
    9.2254   14.9794   24.0781 C   0  0  0  0  0  0  0  0  0  0  0  0
    8.6692   15.5830   24.9084 O   0  0  0  0  0  0  0  0  0  0  0  0
   10.6544   15.2977   23.6847 C   0  0  0  0  0  0  0  0  0  0  0  0
   10.8734   15.3300   22.2515 N   0  0  0  0  0  0  0  0  0  0  0  0
   10.2588   16.1279   21.3302 C   0  0  0  0  0  0  0  0  0  0  0  0
   10.6579   15.6686   20.0980 C   0  0  0  0  0  0  0  0  0  0  0  0
   11.5192   14.6002   20.3818 C   0  0  0  0  0  0  0  0  0  0  0  0
   11.6083   14.3541   21.6944 N   0  0  0  0  0  0  0  0  0  0  0  0
    6.8576   12.4913   24.1659 C   0  0  0  0  0  0  0  0  0  0  0  0
    7.8137   11.4114   24.6467 C   0  0  0  0  0  0  0  0  0  0  0  0
    7.0933   10.4347   25.5765 C   0  0  0  0  0  0  0  0  0  0  0  0
    5.9559   10.9847   26.3275 N   0  0  0  0  0  0  0  0  0  0  0  0
    5.6784   10.2138   27.5543 C   0  0  0  0  0  0  0  0  0  0  0  0
    4.2187    9.8078   27.7583 C   0  0  0  0  0  0  0  0  0  0  0  0
    3.8228    8.8325   26.7925 O   0  0  0  0  0  0  0  0  0  0  0  0
    6.1052   12.4146   26.6083 C   0  0  0  0  0  0  0  0  0  0  0  0
    6.2676   13.2704   25.3437 C   0  0  0  0  0  0  0  0  0  0  0  0
  2  1  1  1
  2  3  1  0
  3  4  1  0
  4  5  2  0
  4  6  1  0
  6  7  1  0
  7  8  1  0
  8  9  2  0
  9 10  1  0
 10 11  2  0
  2 12  1  0
 12 13  1  0
 13 14  1  0
 14 15  1  0
 15 16  1  0
 16 17  1  0
 17 18  1  0
 15 19  1  0
 19 20  1  0
 11  7  1  0
 20 12  1  0
M  END
>  <ref_pdb>  (336) 
A4846a

>  <subsites>  (336) 
1 - Active Site

>  <HIPPO Compound ID>  (336) 
99297

>  <energy_score>  (336) 
-9.765072

>  <fragmenstein_mode>  (336) 
expansion

>  <scratch_subdir>  (336) 
/opt/xchem-fragalysis-2/maxwin/BulkDock/SCRATCH/511237/C48489-P487

>  <smiles>  (336) 
C[C@@H](NC(=O)Cn1cccn1)C1CCN(CCO)CC1

>  <alias>  (336) 
C48489-P487

>  <ref_mols>  (336) 
A0556a,A4846a

>  <inspiration_score>  (336) 
None

>  <tags>  (336) 
BulkDock Fragalysis export,fragmenstein_placed,openbind_a71ev2a_c1_scaffolds,openbind_a71ev2a_c1_knitwork_pure

>  <fragmenstein_outcome>  (336) 
acceptable

>  <fragmenstein_error>  (336) 


>  <distance_score>  (336) 
0.973778

>  <inchikey>  (336) 
UAGGKQWASMNBKS-UHFFFAOYSA-N

>  <name>  (336) 
C48489-P487

>  <HIPPO Pose ID>  (336) 
262779

>  <Energy>  (336) 
62.738314

>  <exports>  (336) 
['/opt/xchem-fragalysis-2/maxwin/BulkDock/OUTPUTS/openbind_a71ev2a_c1_knitwork_pure_165VWF8.sdf', '/opt/xchem-fragalysis-2/maxwin/BulkDock/OUTPUTS/openbind_a71ev2a_c1_knitwork_pure_1B07PTU.sdf', '/opt/xchem-fragalysis-2/maxwin/BulkDock/OUTPUTS/openbind_a71ev2a_c1_knitwork_pure_1B07UWE.sdf', '/opt/xchem-fragalysis-2/maxwin/openbind-hippo/a71ev2a/openbind_a71ev2a_c1_scaffold_products.sdf', '/opt/xchem-fragalysis-2/maxwin/openbind-hippo/a71ev2a/cycle_01/bulkdock/openbind_a71ev2a_c1_scaffold_products.sdf', '/opt/xchem-fragalysis-2/maxwin/openbind-hippo/a71ev2a/cycle_01/bulkdock/openbind_a71ev2a_c1_scaffolds.sdf']

>  <fragmenstein_runtime>  (336) 
3.74343

$$$$
C48494-P487
     RDKit          3D

 21 22  0  0  0  0  0  0  0  0999 V2000
    6.6477   14.4028   22.4680 C   0  0  0  0  0  0  0  0  0  0  0  0
    7.6565   13.3883   22.9831 C   0  0  1  0  0  0  0  0  0  0  0  0
    8.9772   13.9399   22.8548 N   0  0  0  0  0  0  0  0  0  0  0  0
    9.7165   14.9927   23.7191 C   0  0  0  0  0  0  0  0  0  0  0  0
    9.3951   15.5170   24.7134 O   0  0  0  0  0  0  0  0  0  0  0  0
   11.0087   15.3962   23.0243 C   0  0  0  0  0  0  0  0  0  0  0  0
   10.9690   15.3868   21.5793 N   0  0  0  0  0  0  0  0  0  0  0  0
   10.0655   16.0137   20.7718 C   0  0  0  0  0  0  0  0  0  0  0  0
   10.3210   15.5578   19.5026 C   0  0  0  0  0  0  0  0  0  0  0  0
   11.4340   14.7215   19.6391 C   0  0  0  0  0  0  0  0  0  0  0  0
   11.8021   14.5789   20.9128 N   0  0  0  0  0  0  0  0  0  0  0  0
    7.4004   12.8252   24.3974 C   0  0  0  0  0  0  0  0  0  0  0  0
    7.7776   11.3428   24.3913 C   0  0  0  0  0  0  0  0  0  0  0  0
    7.3273   10.5939   25.6231 C   0  0  0  0  0  0  0  0  0  0  0  0
    5.9491   10.8406   26.0686 N   0  0  0  0  0  0  0  0  0  0  0  0
    5.7153   10.1402   27.3445 C   0  0  0  0  0  0  0  0  0  0  0  0
    4.2747    9.7509   27.6307 C   0  0  0  0  0  0  0  0  0  0  0  0
    4.1883    8.8708   28.8712 C   0  0  0  0  0  0  0  0  0  0  0  0
    2.8386    8.4752   29.0596 O   0  0  0  0  0  0  0  0  0  0  0  0
    5.7230   12.2849   26.2269 C   0  0  0  0  0  0  0  0  0  0  0  0
    5.9727   13.0263   24.9166 C   0  0  0  0  0  0  0  0  0  0  0  0
  2  1  1  1
  2  3  1  0
  3  4  1  0
  4  5  2  0
  4  6  1  0
  6  7  1  0
  7  8  1  0
  8  9  2  0
  9 10  1  0
 10 11  2  0
  2 12  1  0
 12 13  1  0
 13 14  1  0
 14 15  1  0
 15 16  1  0
 16 17  1  0
 17 18  1  0
 18 19  1  0
 15 20  1  0
 20 21  1  0
 11  7  1  0
 21 12  1  0
M  END
>  <ref_pdb>  (337) 
A4846a

>  <subsites>  (337) 
1 - Active Site

>  <HIPPO Compound ID>  (337) 
79153

>  <energy_score>  (337) 
-30.542575

>  <fragmenstein_mode>  (337) 
expansion

>  <scratch_subdir>  (337) 
/opt/xchem-fragalysis-2/maxwin/BulkDock/SCRATCH/511237/C48494-P487

>  <smiles>  (337) 
C[C@@H](NC(=O)Cn1cccn1)C1CCN(CCCO)CC1

>  <alias>  (337) 
C48494-P487

>  <ref_mols>  (337) 
A0556a,A4846a

>  <inspiration_score>  (337) 
None

>  <tags>  (337) 
BulkDock Fragalysis export,fragmenstein_placed,openbind_a71ev2a_c1_scaffolds,openbind_a71ev2a_c1_knitwork_pure

>  <fragmenstein_outcome>  (337) 
acceptable

>  <fragmenstein_error>  (337) 


>  <distance_score>  (337) 
0.840788

>  <inchikey>  (337) 
ISLLNGYBDHENHK-UHFFFAOYSA-N

>  <name>  (337) 
C48494-P487

>  <HIPPO Pose ID>  (337) 
262784

>  <Energy>  (337) 
38.325953

>  <exports>  (337) 
['/opt/xchem-fragalysis-2/maxwin/BulkDock/OUTPUTS/openbind_a71ev2a_c1_knitwork_pure_165VWF8.sdf', '/opt/xchem-fragalysis-2/maxwin/BulkDock/OUTPUTS/openbind_a71ev2a_c1_knitwork_pure_1B07PTU.sdf', '/opt/xchem-fragalysis-2/maxwin/BulkDock/OUTPUTS/openbind_a71ev2a_c1_knitwork_pure_1B07UWE.sdf', '/opt/xchem-fragalysis-2/maxwin/openbind-hippo/a71ev2a/openbind_a71ev2a_c1_scaffold_products.sdf', '/opt/xchem-fragalysis-2/maxwin/openbind-hippo/a71ev2a/cycle_01/bulkdock/openbind_a71ev2a_c1_scaffold_products.sdf', '/opt/xchem-fragalysis-2/maxwin/openbind-hippo/a71ev2a/cycle_01/bulkdock/openbind_a71ev2a_c1_scaffolds.sdf']

>  <fragmenstein_runtime>  (337) 
3.764594

$$$$
C48501-P487
     RDKit          3D

 22 23  0  0  0  0  0  0  0  0999 V2000
    2.1970    8.6214   28.1928 C   0  0  0  0  0  0  0  0  0  0  0  0
    3.5205    8.7506   27.4593 C   0  0  0  0  0  0  0  0  0  0  0  0
    4.3741    9.8440   28.0835 C   0  0  1  0  0  0  0  0  0  0  0  0
    4.6796    9.4066   29.3510 F   0  0  0  0  0  0  0  0  0  0  0  0
    5.7156   10.1057   27.3875 C   0  0  0  0  0  0  0  0  0  0  0  0
    5.8129   10.9929   26.2053 N   0  0  0  0  0  0  0  0  0  0  0  0
    7.0962   10.7407   25.5120 C   0  0  0  0  0  0  0  0  0  0  0  0
    7.4137   11.7149   24.3813 C   0  0  0  0  0  0  0  0  0  0  0  0
    7.3149   13.1689   24.8304 C   0  0  0  0  0  0  0  0  0  0  0  0
    7.6074   14.1871   23.7088 C   0  0  2  0  0  0  0  0  0  0  0  0
    6.6994   14.1056   22.4842 C   0  0  0  0  0  0  0  0  0  0  0  0
    8.9851   14.0918   23.2678 N   0  0  0  0  0  0  0  0  0  0  0  0
   10.3072   14.4740   23.9945 C   0  0  0  0  0  0  0  0  0  0  0  0
   10.4900   14.8511   25.0873 O   0  0  0  0  0  0  0  0  0  0  0  0
   11.4565   14.2725   23.0123 C   0  0  0  0  0  0  0  0  0  0  0  0
   11.2644   14.9001   21.7178 N   0  0  0  0  0  0  0  0  0  0  0  0
   10.4915   15.9765   21.4065 C   0  0  0  0  0  0  0  0  0  0  0  0
   10.4234   16.0073   20.0360 C   0  0  0  0  0  0  0  0  0  0  0  0
   11.2567   14.9702   19.6026 C   0  0  0  0  0  0  0  0  0  0  0  0
   11.7806   14.3020   20.6315 N   0  0  0  0  0  0  0  0  0  0  0  0
    5.9366   13.3801   25.4689 C   0  0  0  0  0  0  0  0  0  0  0  0
    5.7098   12.4019   26.6235 C   0  0  0  0  0  0  0  0  0  0  0  0
  1  2  1  0
  2  3  1  0
  3  4  1  1
  3  5  1  0
  5  6  1  0
  6  7  1  0
  7  8  1  0
  8  9  1  0
  9 10  1  0
 10 11  1  6
 10 12  1  0
 12 13  1  0
 13 14  2  0
 13 15  1  0
 15 16  1  0
 16 17  1  0
 17 18  2  0
 18 19  1  0
 19 20  2  0
  9 21  1  0
 21 22  1  0
 22  6  1  0
 20 16  1  0
M  END
>  <ref_pdb>  (338) 
A4846a

>  <subsites>  (338) 
1 - Active Site

>  <HIPPO Compound ID>  (338) 
47020

>  <energy_score>  (338) 
-28.332592

>  <fragmenstein_mode>  (338) 
expansion

>  <scratch_subdir>  (338) 
/opt/xchem-fragalysis-2/maxwin/BulkDock/SCRATCH/511237/C48501-P487

>  <smiles>  (338) 
CC[C@@H](F)CN1CCC([C@H](C)NC(=O)Cn2cccn2)CC1

>  <alias>  (338) 
C48501-P487

>  <ref_mols>  (338) 
A0556a,A4846a

>  <inspiration_score>  (338) 
None

>  <tags>  (338) 
BulkDock Fragalysis export,fragmenstein_placed,openbind_a71ev2a_c1_scaffolds,openbind_a71ev2a_c1_knitwork_pure

>  <fragmenstein_outcome>  (338) 
acceptable

>  <fragmenstein_error>  (338) 


>  <distance_score>  (338) 
0.962745

>  <inchikey>  (338) 
GXDXQSSPAOBTRI-UHFFFAOYSA-N

>  <name>  (338) 
C48501-P487

>  <HIPPO Pose ID>  (338) 
262789

>  <Energy>  (338) 
56.10529

>  <exports>  (338) 
['/opt/xchem-fragalysis-2/maxwin/BulkDock/OUTPUTS/openbind_a71ev2a_c1_knitwork_pure_165VWF8.sdf', '/opt/xchem-fragalysis-2/maxwin/BulkDock/OUTPUTS/openbind_a71ev2a_c1_knitwork_pure_1B07PTU.sdf', '/opt/xchem-fragalysis-2/maxwin/BulkDock/OUTPUTS/openbind_a71ev2a_c1_knitwork_pure_1B07UWE.sdf', '/opt/xchem-fragalysis-2/maxwin/openbind-hippo/a71ev2a/openbind_a71ev2a_c1_scaffold_products.sdf', '/opt/xchem-fragalysis-2/maxwin/openbind-hippo/a71ev2a/cycle_01/bulkdock/openbind_a71ev2a_c1_scaffold_products.sdf', '/opt/xchem-fragalysis-2/maxwin/openbind-hippo/a71ev2a/cycle_01/bulkdock/openbind_a71ev2a_c1_scaffolds.sdf']

>  <fragmenstein_runtime>  (338) 
4.173424

$$$$
C54239-P151
     RDKit          3D

 15 16  0  0  0  0  0  0  0  0999 V2000
    7.7120   14.0401   25.5089 C   0  0  0  0  0  0  0  0  0  0  0  0
    8.5701   13.1105   24.6535 C   0  0  2  0  0  0  0  0  0  0  0  0
    8.4765   13.5691   23.1915 C   0  0  0  0  0  0  0  0  0  0  0  0
    7.5131   13.2223   22.4991 O   0  0  0  0  0  0  0  0  0  0  0  0
    9.5746   14.3902   22.6324 C   0  0  0  0  0  0  0  0  0  0  0  0
   10.7813   14.8256   23.2960 C   0  0  0  0  0  0  0  0  0  0  0  0
   11.6362   15.4516   22.4136 C   0  0  0  0  0  0  0  0  0  0  0  0
   10.8814   15.5209   20.8856 S   0  0  0  0  0  0  0  0  0  0  0  0
    9.4907   14.7665   21.3513 N   0  0  0  0  0  0  0  0  0  0  0  0
    8.2359   11.6354   24.8154 C   0  0  0  0  0  0  0  0  0  0  0  0
    7.2175   11.1822   25.6634 C   0  0  0  0  0  0  0  0  0  0  0  0
    7.0067    9.8247   25.7937 C   0  0  0  0  0  0  0  0  0  0  0  0
    7.7336    8.8997   25.1453 N   0  0  0  0  0  0  0  0  0  0  0  0
    8.6961    9.3386   24.3049 C   0  0  0  0  0  0  0  0  0  0  0  0
    8.9841   10.6785   24.1150 C   0  0  0  0  0  0  0  0  0  0  0  0
  2  1  1  1
  2  3  1  0
  3  4  2  0
  3  5  1  0
  5  6  1  0
  6  7  2  0
  7  8  1  0
  8  9  1  0
  2 10  1  0
 10 11  2  0
 11 12  1  0
 12 13  2  0
 13 14  1  0
 14 15  2  0
  9  5  2  0
 15 10  1  0
M  END
>  <ref_pdb>  (339) 
A3194a

>  <subsites>  (339) 
1 - Active Site

>  <HIPPO Compound ID>  (339) 
54609

>  <energy_score>  (339) 
-27.267225

>  <fragmenstein_mode>  (339) 
expansion

>  <scratch_subdir>  (339) 
/opt/xchem-fragalysis-2/maxwin/BulkDock/SCRATCH/512176/C54239-P151

>  <smiles>  (339) 
C[C@H](C(=O)c1ccsn1)c1ccncc1

>  <alias>  (339) 
C54239-P151

>  <ref_mols>  (339) 
A1775a,A1779a,A3194a

>  <inspiration_score>  (339) 
None

>  <tags>  (339) 
BulkDock Fragalysis export,fragmenstein_placed,openbind_a71ev2a_c1_scaffolds,openbind_a71ev2a_c1_knitwork_pure

>  <fragmenstein_outcome>  (339) 
acceptable

>  <fragmenstein_error>  (339) 


>  <distance_score>  (339) 
0.798066

>  <inchikey>  (339) 
YTDDXKFXAHOBOJ-UHFFFAOYSA-N

>  <name>  (339) 
C54239-P151

>  <HIPPO Pose ID>  (339) 
263647

>  <Energy>  (339) 
72.496481

>  <exports>  (339) 
['/opt/xchem-fragalysis-2/maxwin/BulkDock/OUTPUTS/openbind_a71ev2a_c1_knitwork_pure_165VWF8.sdf', '/opt/xchem-fragalysis-2/maxwin/BulkDock/OUTPUTS/openbind_a71ev2a_c1_knitwork_pure_1B07PTU.sdf', '/opt/xchem-fragalysis-2/maxwin/BulkDock/OUTPUTS/openbind_a71ev2a_c1_knitwork_pure_1B07UWE.sdf', '/opt/xchem-fragalysis-2/maxwin/openbind-hippo/a71ev2a/openbind_a71ev2a_c1_scaffold_products.sdf', '/opt/xchem-fragalysis-2/maxwin/openbind-hippo/a71ev2a/cycle_01/bulkdock/openbind_a71ev2a_c1_scaffold_products.sdf', '/opt/xchem-fragalysis-2/maxwin/openbind-hippo/a71ev2a/cycle_01/bulkdock/openbind_a71ev2a_c1_scaffolds.sdf']

>  <fragmenstein_runtime>  (339) 
1.980507

$$$$
C3756-P159
     RDKit          3D

 11 12  0  0  0  0  0  0  0  0999 V2000
    6.7918   11.1122   26.0377 C   0  0  0  0  0  0  0  0  0  0  0  0
    6.8807   12.2033   25.2179 C   0  0  0  0  0  0  0  0  0  0  0  0
    5.8365   13.0608   25.6426 C   0  0  0  0  0  0  0  0  0  0  0  0
    5.3830   14.3278   24.9877 C   0  0  2  0  0  0  0  0  0  0  0  0
    4.5775   13.9719   23.7268 C   0  0  0  0  0  0  0  0  0  0  0  0
    4.2998   15.1876   22.8687 C   0  0  0  0  0  0  0  0  0  0  0  0
    5.6056   15.9039   22.5628 C   0  0  0  0  0  0  0  0  0  0  0  0
    6.2567   16.3619   23.7849 N   0  0  0  0  0  0  0  0  0  0  0  0
    6.5796   15.2433   24.6626 C   0  0  0  0  0  0  0  0  0  0  0  0
    5.1879   12.5620   26.7027 N   0  0  0  0  0  0  0  0  0  0  0  0
    5.7560   11.3623   26.8850 N   0  0  0  0  0  0  0  0  0  0  0  0
  1  2  2  0
  2  3  1  0
  4  3  1  6
  4  5  1  0
  5  6  1  0
  6  7  1  0
  7  8  1  0
  8  9  1  0
  3 10  2  0
 10 11  1  0
 11  1  1  0
  9  4  1  0
M  END
>  <ref_pdb>  (340) 
A3223a

>  <subsites>  (340) 
1 - Active Site

>  <HIPPO Compound ID>  (340) 
46745

>  <energy_score>  (340) 
-19.026215

>  <fragmenstein_mode>  (340) 
expansion

>  <scratch_subdir>  (340) 
/opt/xchem-fragalysis-2/maxwin/BulkDock/SCRATCH/512176/C3756-P159

>  <smiles>  (340) 
c1cc([C@@H]2CCCNC2)n[nH]1

>  <alias>  (340) 
C3756-P159

>  <ref_mols>  (340) 
A2304a,A3223a

>  <inspiration_score>  (340) 
None

>  <tags>  (340) 
BulkDock Fragalysis export,fragmenstein_placed,openbind_a71ev2a_c1_scaffolds,openbind_a71ev2a_c1_knitwork_pure

>  <fragmenstein_outcome>  (340) 
acceptable

>  <fragmenstein_error>  (340) 


>  <distance_score>  (340) 
0.953296

>  <inchikey>  (340) 
CGTYQSSIZNKAKB-UHFFFAOYSA-N

>  <name>  (340) 
C3756-P159

>  <HIPPO Pose ID>  (340) 
263806

>  <Energy>  (340) 
22.28216

>  <exports>  (340) 
['/opt/xchem-fragalysis-2/maxwin/BulkDock/OUTPUTS/openbind_a71ev2a_c1_knitwork_pure_165VWF8.sdf', '/opt/xchem-fragalysis-2/maxwin/BulkDock/OUTPUTS/openbind_a71ev2a_c1_knitwork_pure_1B07PTU.sdf', '/opt/xchem-fragalysis-2/maxwin/BulkDock/OUTPUTS/openbind_a71ev2a_c1_knitwork_pure_1B07UWE.sdf', '/opt/xchem-fragalysis-2/maxwin/openbind-hippo/a71ev2a/openbind_a71ev2a_c1_scaffold_products.sdf', '/opt/xchem-fragalysis-2/maxwin/openbind-hippo/a71ev2a/cycle_01/bulkdock/openbind_a71ev2a_c1_scaffold_products.sdf', '/opt/xchem-fragalysis-2/maxwin/openbind-hippo/a71ev2a/cycle_01/bulkdock/openbind_a71ev2a_c1_scaffolds.sdf']

>  <fragmenstein_runtime>  (340) 
1.981078

$$$$
C3275-P439
     RDKit          3D

 12 13  0  0  0  0  0  0  0  0999 V2000
    9.2754   10.3656   23.7913 C   0  0  0  0  0  0  0  0  0  0  0  0
    9.5594   11.6351   23.3328 C   0  0  0  0  0  0  0  0  0  0  0  0
    8.8727   12.6908   23.8964 C   0  0  0  0  0  0  0  0  0  0  0  0
    9.1526   14.0092   23.5787 N   0  0  0  0  0  0  0  0  0  0  0  0
   10.4831   14.5076   23.9126 C   0  0  0  0  0  0  0  0  0  0  0  0
   11.4042   14.5490   22.6993 C   0  0  0  0  0  0  0  0  0  0  0  0
   10.7646   15.3041   21.5451 C   0  0  0  0  0  0  0  0  0  0  0  0
    9.4077   14.7007   21.2098 C   0  0  0  0  0  0  0  0  0  0  0  0
    8.4854   14.6141   22.4245 C   0  0  0  0  0  0  0  0  0  0  0  0
    7.9333   12.4693   24.8309 N   0  0  0  0  0  0  0  0  0  0  0  0
    7.7403   11.1989   25.2198 C   0  0  0  0  0  0  0  0  0  0  0  0
    8.3725   10.1178   24.7500 N   0  0  0  0  0  0  0  0  0  0  0  0
  1  2  2  0
  2  3  1  0
  3  4  1  0
  4  5  1  0
  5  6  1  0
  6  7  1  0
  7  8  1  0
  8  9  1  0
  3 10  2  0
 10 11  1  0
 11 12  2  0
 12  1  1  0
  9  4  1  0
M  END
>  <ref_pdb>  (341) 
A4706a

>  <subsites>  (341) 
1 - Active Site

>  <HIPPO Compound ID>  (341) 
48173

>  <energy_score>  (341) 
-11.405106

>  <fragmenstein_mode>  (341) 
expansion

>  <scratch_subdir>  (341) 
/opt/xchem-fragalysis-2/maxwin/BulkDock/SCRATCH/512176/C3275-P439

>  <smiles>  (341) 
c1cc(N2CCCCC2)ncn1

>  <alias>  (341) 
C3275-P439

>  <ref_mols>  (341) 
A4706a,A1068a

>  <inspiration_score>  (341) 
None

>  <tags>  (341) 
BulkDock Fragalysis export,fragmenstein_placed,openbind_a71ev2a_c1_scaffolds,openbind_a71ev2a_c1_knitwork_pure

>  <fragmenstein_outcome>  (341) 
acceptable

>  <fragmenstein_error>  (341) 


>  <distance_score>  (341) 
0.839272

>  <inchikey>  (341) 
IHQQJGYNMPUAJX-UHFFFAOYSA-N

>  <name>  (341) 
C3275-P439

>  <HIPPO Pose ID>  (341) 
263997

>  <Energy>  (341) 
-31.85076

>  <exports>  (341) 
['/opt/xchem-fragalysis-2/maxwin/BulkDock/OUTPUTS/openbind_a71ev2a_c1_knitwork_pure_165VWF8.sdf', '/opt/xchem-fragalysis-2/maxwin/BulkDock/OUTPUTS/openbind_a71ev2a_c1_knitwork_pure_1B07PTU.sdf', '/opt/xchem-fragalysis-2/maxwin/BulkDock/OUTPUTS/openbind_a71ev2a_c1_knitwork_pure_1B07UWE.sdf', '/opt/xchem-fragalysis-2/maxwin/openbind-hippo/a71ev2a/openbind_a71ev2a_c1_scaffold_products.sdf', '/opt/xchem-fragalysis-2/maxwin/openbind-hippo/a71ev2a/cycle_01/bulkdock/openbind_a71ev2a_c1_scaffold_products.sdf', '/opt/xchem-fragalysis-2/maxwin/openbind-hippo/a71ev2a/cycle_01/bulkdock/openbind_a71ev2a_c1_scaffolds.sdf']

>  <fragmenstein_runtime>  (341) 
1.248176

$$$$
C45912-P439
     RDKit          3D

 21 22  0  0  0  0  0  0  0  0999 V2000
    1.6150   14.0834   26.1194 C   0  0  0  0  0  0  0  0  0  0  0  0
    2.3752   15.1724   26.7989 C   0  0  0  0  0  0  0  0  0  0  0  0
    3.5450   15.6027   26.4274 C   0  0  0  0  0  0  0  0  0  0  0  0
    4.7161   16.0245   26.0465 C   0  0  0  0  0  0  0  0  0  0  0  0
    5.9494   15.1720   25.8802 C   0  0  0  0  0  0  0  0  0  0  0  0
    6.2021   14.1715   27.0233 C   0  0  0  0  0  0  0  0  0  0  0  0
    5.5818   12.8641   26.7531 N   0  0  0  0  0  0  0  0  0  0  0  0
    6.5628   11.7987   26.5400 C   0  0  0  0  0  0  0  0  0  0  0  0
    7.5209   11.9308   25.3703 C   0  0  0  0  0  0  0  0  0  0  0  0
    8.1466   10.8033   24.9081 C   0  0  0  0  0  0  0  0  0  0  0  0
    9.0157   10.9808   23.8594 C   0  0  0  0  0  0  0  0  0  0  0  0
    9.6180    9.7796   23.2240 C   0  0  0  0  0  0  0  0  0  0  0  0
    9.3103   12.1873   23.3409 N   0  0  0  0  0  0  0  0  0  0  0  0
    8.7078   13.2516   23.8745 C   0  0  0  0  0  0  0  0  0  0  0  0
    9.0911   14.5357   23.5204 N   0  0  0  0  0  0  0  0  0  0  0  0
   10.4925   14.8027   23.8181 C   0  0  0  0  0  0  0  0  0  0  0  0
   11.4356   14.4810   22.6692 C   0  0  0  0  0  0  0  0  0  0  0  0
   10.9749   15.1536   21.3883 C   0  0  0  0  0  0  0  0  0  0  0  0
    9.5512   14.7255   21.0703 C   0  0  0  0  0  0  0  0  0  0  0  0
    8.5915   14.9993   22.2232 C   0  0  0  0  0  0  0  0  0  0  0  0
    7.8299   13.1474   24.8777 N   0  0  0  0  0  0  0  0  0  0  0  0
  1  2  1  0
  2  3  2  0
  3  4  2  0
  4  5  1  0
  5  6  1  0
  6  7  1  0
  7  8  1  0
  8  9  1  0
  9 10  2  0
 10 11  1  0
 11 12  1  0
 11 13  2  0
 13 14  1  0
 14 15  1  0
 15 16  1  0
 16 17  1  0
 17 18  1  0
 18 19  1  0
 19 20  1  0
 14 21  2  0
 21  9  1  0
 20 15  1  0
M  END
>  <ref_pdb>  (342) 
A4706a

>  <subsites>  (342) 
1 - Active Site

>  <HIPPO Compound ID>  (342) 
50765

>  <energy_score>  (342) 
-16.950538

>  <fragmenstein_mode>  (342) 
expansion

>  <scratch_subdir>  (342) 
/opt/xchem-fragalysis-2/maxwin/BulkDock/SCRATCH/512176/C45912-P439

>  <smiles>  (342) 
CC=C=CCCNCc1cc(C)nc(N2CCCCC2)n1

>  <alias>  (342) 
C45912-P439

>  <ref_mols>  (342) 
A4706a,A1068a

>  <inspiration_score>  (342) 
None

>  <tags>  (342) 
BulkDock Fragalysis export,fragmenstein_placed,openbind_a71ev2a_c1_scaffolds,openbind_a71ev2a_c1_knitwork_pure

>  <fragmenstein_outcome>  (342) 
acceptable

>  <fragmenstein_error>  (342) 


>  <distance_score>  (342) 
0.849674

>  <inchikey>  (342) 
STCJHBJZJQTPAK-UHFFFAOYSA-N

>  <name>  (342) 
C45912-P439

>  <HIPPO Pose ID>  (342) 
264009

>  <Energy>  (342) 
-26.561133

>  <exports>  (342) 
['/opt/xchem-fragalysis-2/maxwin/BulkDock/OUTPUTS/openbind_a71ev2a_c1_knitwork_pure_165VWF8.sdf', '/opt/xchem-fragalysis-2/maxwin/BulkDock/OUTPUTS/openbind_a71ev2a_c1_knitwork_pure_1B07PTU.sdf', '/opt/xchem-fragalysis-2/maxwin/BulkDock/OUTPUTS/openbind_a71ev2a_c1_knitwork_pure_1B07UWE.sdf', '/opt/xchem-fragalysis-2/maxwin/openbind-hippo/a71ev2a/openbind_a71ev2a_c1_scaffold_products.sdf', '/opt/xchem-fragalysis-2/maxwin/openbind-hippo/a71ev2a/cycle_01/bulkdock/openbind_a71ev2a_c1_scaffold_products.sdf', '/opt/xchem-fragalysis-2/maxwin/openbind-hippo/a71ev2a/cycle_01/bulkdock/openbind_a71ev2a_c1_scaffolds.sdf']

>  <fragmenstein_runtime>  (342) 
6.036417

$$$$
C1794-P481
     RDKit          3D

 12 13  0  0  0  0  0  0  0  0999 V2000
    8.1865   11.7011   25.2959 C   0  0  0  0  0  0  0  0  0  0  0  0
    8.8350   10.7181   24.5752 C   0  0  0  0  0  0  0  0  0  0  0  0
    9.6787   10.9861   23.5632 N   0  0  0  0  0  0  0  0  0  0  0  0
    9.8788   12.2910   23.2498 C   0  0  0  0  0  0  0  0  0  0  0  0
    9.2886   13.3634   23.9027 C   0  0  0  0  0  0  0  0  0  0  0  0
    9.5143   14.8129   23.5034 C   0  0  2  0  0  0  0  0  0  0  0  0
    9.1100   15.1946   22.0624 C   0  0  0  0  0  0  0  0  0  0  0  0
   10.2147   15.0354   21.0232 C   0  0  0  0  0  0  0  0  0  0  0  0
   11.5394   15.5891   21.5219 C   0  0  0  0  0  0  0  0  0  0  0  0
   11.8814   15.0229   22.8926 C   0  0  0  0  0  0  0  0  0  0  0  0
   10.8452   15.3264   23.8881 N   0  0  0  0  0  0  0  0  0  0  0  0
    8.4290   13.0344   24.9630 C   0  0  0  0  0  0  0  0  0  0  0  0
  1  2  2  0
  2  3  1  0
  3  4  2  0
  4  5  1  0
  6  5  1  6
  6  7  1  0
  7  8  1  0
  8  9  1  0
  9 10  1  0
 10 11  1  0
  5 12  2  0
 12  1  1  0
 11  6  1  0
M  END
>  <ref_pdb>  (343) 
A4836a

>  <subsites>  (343) 
1 - Active Site

>  <HIPPO Compound ID>  (343) 
45621

>  <energy_score>  (343) 
-20.999596

>  <fragmenstein_mode>  (343) 
expansion

>  <scratch_subdir>  (343) 
/opt/xchem-fragalysis-2/maxwin/BulkDock/SCRATCH/512176/C1794-P481

>  <smiles>  (343) 
c1cncc([C@@H]2CCCCN2)c1

>  <alias>  (343) 
C1794-P481

>  <ref_mols>  (343) 
A4836a,A2629a

>  <inspiration_score>  (343) 
None

>  <tags>  (343) 
BulkDock Fragalysis export,fragmenstein_placed,openbind_a71ev2a_c1_scaffolds,openbind_a71ev2a_c1_knitwork_pure

>  <fragmenstein_outcome>  (343) 
acceptable

>  <fragmenstein_error>  (343) 


>  <distance_score>  (343) 
0.886867

>  <inchikey>  (343) 
FJYQDPPMQZVULE-UHFFFAOYSA-N

>  <name>  (343) 
C1794-P481

>  <HIPPO Pose ID>  (343) 
264622

>  <Energy>  (343) 
19.708625

>  <exports>  (343) 
['/opt/xchem-fragalysis-2/maxwin/BulkDock/OUTPUTS/openbind_a71ev2a_c1_knitwork_pure_165VWF8.sdf', '/opt/xchem-fragalysis-2/maxwin/BulkDock/OUTPUTS/openbind_a71ev2a_c1_knitwork_pure_1B07PTU.sdf', '/opt/xchem-fragalysis-2/maxwin/BulkDock/OUTPUTS/openbind_a71ev2a_c1_knitwork_pure_1B07UWE.sdf', '/opt/xchem-fragalysis-2/maxwin/openbind-hippo/a71ev2a/openbind_a71ev2a_c1_scaffold_products.sdf', '/opt/xchem-fragalysis-2/maxwin/openbind-hippo/a71ev2a/cycle_01/bulkdock/openbind_a71ev2a_c1_scaffold_products.sdf', '/opt/xchem-fragalysis-2/maxwin/openbind-hippo/a71ev2a/cycle_01/bulkdock/openbind_a71ev2a_c1_scaffolds.sdf']

>  <fragmenstein_runtime>  (343) 
17.046584

$$$$
C715-P481
     RDKit          3D

 12 13  0  0  0  0  0  0  0  0999 V2000
    9.5184   10.8581   23.7012 C   0  0  0  0  0  0  0  0  0  0  0  0
    8.6823   10.6897   24.7876 C   0  0  0  0  0  0  0  0  0  0  0  0
    8.1529   11.7137   25.4857 N   0  0  0  0  0  0  0  0  0  0  0  0
    8.4763   12.9626   25.0544 C   0  0  0  0  0  0  0  0  0  0  0  0
    9.3022   13.2582   23.9655 C   0  0  0  0  0  0  0  0  0  0  0  0
    9.5746   14.5801   23.6168 N   0  0  0  0  0  0  0  0  0  0  0  0
   10.8931   15.0780   24.0191 C   0  0  0  0  0  0  0  0  0  0  0  0
   11.9296   14.9258   22.9117 C   0  0  0  0  0  0  0  0  0  0  0  0
   11.4561   15.5796   21.6210 C   0  0  0  0  0  0  0  0  0  0  0  0
   10.1081   15.0072   21.2015 C   0  0  0  0  0  0  0  0  0  0  0  0
    9.0715   15.0746   22.3218 C   0  0  0  0  0  0  0  0  0  0  0  0
    9.8265   12.1575   23.2945 C   0  0  0  0  0  0  0  0  0  0  0  0
  1  2  2  0
  2  3  1  0
  3  4  2  0
  4  5  1  0
  5  6  1  0
  6  7  1  0
  7  8  1  0
  8  9  1  0
  9 10  1  0
 10 11  1  0
  5 12  2  0
 12  1  1  0
 11  6  1  0
M  END
>  <ref_pdb>  (344) 
A4836a

>  <subsites>  (344) 
1 - Active Site,2 - A3977/A/202/1

>  <HIPPO Compound ID>  (344) 
73035

>  <energy_score>  (344) 
-11.849462

>  <fragmenstein_mode>  (344) 
expansion

>  <scratch_subdir>  (344) 
/opt/xchem-fragalysis-2/maxwin/BulkDock/SCRATCH/512176/C715-P481

>  <smiles>  (344) 
c1cncc(N2CCCCC2)c1

>  <alias>  (344) 
C715-P481

>  <ref_mols>  (344) 
A4836a,A1105b,A2629a

>  <inspiration_score>  (344) 
None

>  <tags>  (344) 
BulkDock Fragalysis export,fragmenstein_placed,openbind_a71ev2a_c1_scaffolds,openbind_a71ev2a_c1_knitwork_pure

>  <fragmenstein_outcome>  (344) 
acceptable

>  <fragmenstein_error>  (344) 


>  <distance_score>  (344) 
0.864186

>  <inchikey>  (344) 
BZZOYINXFCNSHF-UHFFFAOYSA-N

>  <name>  (344) 
C715-P481

>  <HIPPO Pose ID>  (344) 
264623

>  <Energy>  (344) 
44.159286

>  <exports>  (344) 
['/opt/xchem-fragalysis-2/maxwin/BulkDock/OUTPUTS/openbind_a71ev2a_c1_knitwork_pure_165VWF8.sdf', '/opt/xchem-fragalysis-2/maxwin/BulkDock/OUTPUTS/openbind_a71ev2a_c1_knitwork_pure_1B07PTU.sdf', '/opt/xchem-fragalysis-2/maxwin/BulkDock/OUTPUTS/openbind_a71ev2a_c1_knitwork_pure_1B07UWE.sdf', '/opt/xchem-fragalysis-2/maxwin/openbind-hippo/a71ev2a/openbind_a71ev2a_c1_scaffold_products.sdf', '/opt/xchem-fragalysis-2/maxwin/openbind-hippo/a71ev2a/cycle_01/bulkdock/openbind_a71ev2a_c1_scaffold_products.sdf', '/opt/xchem-fragalysis-2/maxwin/openbind-hippo/a71ev2a/cycle_01/bulkdock/openbind_a71ev2a_c1_scaffolds.sdf']

>  <fragmenstein_runtime>  (344) 
5.457783

$$$$
C48047-P481
     RDKit          3D

 12 13  0  0  0  0  0  0  0  0999 V2000
    8.0832   11.6003   25.2442 C   0  0  0  0  0  0  0  0  0  0  0  0
    8.7908   10.6290   24.5636 C   0  0  0  0  0  0  0  0  0  0  0  0
    9.6812   10.9092   23.5947 N   0  0  0  0  0  0  0  0  0  0  0  0
    9.8670   12.2132   23.2811 C   0  0  0  0  0  0  0  0  0  0  0  0
    9.2261   13.2730   23.9060 C   0  0  0  0  0  0  0  0  0  0  0  0
    9.4967   14.7292   23.5613 C   0  0  0  0  0  0  0  0  0  0  0  0
   10.8841   15.1738   24.0509 C   0  0  0  0  0  0  0  0  0  0  0  0
   11.9883   14.9344   23.0287 C   0  0  0  0  0  0  0  0  0  0  0  0
   11.6674   15.5914   21.7740 N   0  0  0  0  0  0  0  0  0  0  0  0
   10.4672   15.0173   21.1733 C   0  0  0  0  0  0  0  0  0  0  0  0
    9.2493   15.1308   22.0920 C   0  0  0  0  0  0  0  0  0  0  0  0
    8.3151   12.9357   24.9174 C   0  0  0  0  0  0  0  0  0  0  0  0
  1  2  2  0
  2  3  1  0
  3  4  2  0
  4  5  1  0
  5  6  1  0
  6  7  1  0
  7  8  1  0
  8  9  1  0
  9 10  1  0
 10 11  1  0
  5 12  2  0
 12  1  1  0
 11  6  1  0
M  END
>  <ref_pdb>  (345) 
A4836a

>  <subsites>  (345) 
1 - Active Site

>  <HIPPO Compound ID>  (345) 
48047

>  <energy_score>  (345) 
-20.675966

>  <fragmenstein_mode>  (345) 
expansion

>  <scratch_subdir>  (345) 
/opt/xchem-fragalysis-2/maxwin/BulkDock/SCRATCH/512176/C48047-P481

>  <smiles>  (345) 
c1cncc(C2CCNCC2)c1

>  <alias>  (345) 
C48047-P481

>  <ref_mols>  (345) 
A4836a,A2629a

>  <inspiration_score>  (345) 
None

>  <tags>  (345) 
BulkDock Fragalysis export,fragmenstein_placed,openbind_a71ev2a_c1_scaffolds,openbind_a71ev2a_c1_knitwork_pure

>  <fragmenstein_outcome>  (345) 
acceptable

>  <fragmenstein_error>  (345) 


>  <distance_score>  (345) 
0.85291

>  <inchikey>  (345) 
BRBPGGIIQVBPSB-UHFFFAOYSA-N

>  <name>  (345) 
C48047-P481

>  <HIPPO Pose ID>  (345) 
264625

>  <Energy>  (345) 
19.703525

>  <exports>  (345) 
['/opt/xchem-fragalysis-2/maxwin/BulkDock/OUTPUTS/openbind_a71ev2a_c1_knitwork_pure_165VWF8.sdf', '/opt/xchem-fragalysis-2/maxwin/BulkDock/OUTPUTS/openbind_a71ev2a_c1_knitwork_pure_1B07PTU.sdf', '/opt/xchem-fragalysis-2/maxwin/BulkDock/OUTPUTS/openbind_a71ev2a_c1_knitwork_pure_1B07UWE.sdf', '/opt/xchem-fragalysis-2/maxwin/openbind-hippo/a71ev2a/openbind_a71ev2a_c1_scaffold_products.sdf', '/opt/xchem-fragalysis-2/maxwin/openbind-hippo/a71ev2a/cycle_01/bulkdock/openbind_a71ev2a_c1_scaffold_products.sdf', '/opt/xchem-fragalysis-2/maxwin/openbind-hippo/a71ev2a/cycle_01/bulkdock/openbind_a71ev2a_c1_scaffolds.sdf']

>  <fragmenstein_runtime>  (345) 
11.963753

$$$$
C736-P439
     RDKit          3D

 12 13  0  0  0  0  0  0  0  0999 V2000
    9.9062   15.7423   21.0882 C   0  0  0  0  0  0  0  0  0  0  0  0
   11.0765   15.3480   21.7118 C   0  0  0  0  0  0  0  0  0  0  0  0
   10.9915   14.6264   22.8971 C   0  0  0  0  0  0  0  0  0  0  0  0
    9.7402   14.2744   23.4177 C   0  0  0  0  0  0  0  0  0  0  0  0
    9.6735   13.4004   24.5255 N   0  0  0  0  0  0  0  0  0  0  0  0
   10.3084   12.1073   24.2277 C   0  0  0  0  0  0  0  0  0  0  0  0
    9.2767   11.0230   23.9472 C   0  0  0  0  0  0  0  0  0  0  0  0
    8.3232   10.8337   25.1198 C   0  0  0  0  0  0  0  0  0  0  0  0
    8.2410   12.0736   25.9984 C   0  0  0  0  0  0  0  0  0  0  0  0
    8.3414   13.3347   25.1489 C   0  0  0  0  0  0  0  0  0  0  0  0
    8.6015   14.7040   22.8390 N   0  0  0  0  0  0  0  0  0  0  0  0
    8.7093   15.4283   21.7032 C   0  0  0  0  0  0  0  0  0  0  0  0
  1  2  2  0
  2  3  1  0
  3  4  2  0
  4  5  1  0
  5  6  1  0
  6  7  1  0
  7  8  1  0
  8  9  1  0
  9 10  1  0
  4 11  1  0
 11 12  2  0
 12  1  1  0
 10  5  1  0
M  END
>  <ref_pdb>  (346) 
A4706a

>  <subsites>  (346) 
1 - Active Site

>  <HIPPO Compound ID>  (346) 
45868

>  <energy_score>  (346) 
-10.354918

>  <fragmenstein_mode>  (346) 
expansion

>  <scratch_subdir>  (346) 
/opt/xchem-fragalysis-2/maxwin/BulkDock/SCRATCH/512176/C736-P439

>  <smiles>  (346) 
c1ccc(N2CCCCC2)nc1

>  <alias>  (346) 
C736-P439

>  <ref_mols>  (346) 
A4706a,A2629a

>  <inspiration_score>  (346) 
None

>  <tags>  (346) 
BulkDock Fragalysis export,fragmenstein_placed,openbind_a71ev2a_c1_scaffolds,openbind_a71ev2a_c1_knitwork_pure

>  <fragmenstein_outcome>  (346) 
acceptable

>  <fragmenstein_error>  (346) 


>  <distance_score>  (346) 
0.983377

>  <inchikey>  (346) 
GUNFXNUZCJVVCQ-UHFFFAOYSA-N

>  <name>  (346) 
C736-P439

>  <HIPPO Pose ID>  (346) 
265680

>  <Energy>  (346) 
-8.407831

>  <exports>  (346) 
['/opt/xchem-fragalysis-2/maxwin/BulkDock/OUTPUTS/openbind_a71ev2a_c1_knitwork_pure_165VWF8.sdf', '/opt/xchem-fragalysis-2/maxwin/BulkDock/OUTPUTS/openbind_a71ev2a_c1_knitwork_pure_1B07PTU.sdf', '/opt/xchem-fragalysis-2/maxwin/BulkDock/OUTPUTS/openbind_a71ev2a_c1_knitwork_pure_1B07UWE.sdf', '/opt/xchem-fragalysis-2/maxwin/openbind-hippo/a71ev2a/openbind_a71ev2a_c1_scaffold_products.sdf', '/opt/xchem-fragalysis-2/maxwin/openbind-hippo/a71ev2a/cycle_01/bulkdock/openbind_a71ev2a_c1_scaffold_products.sdf', '/opt/xchem-fragalysis-2/maxwin/openbind-hippo/a71ev2a/cycle_01/bulkdock/openbind_a71ev2a_c1_scaffolds.sdf']

>  <fragmenstein_runtime>  (346) 
4.592706

$$$$
C46475-P481
     RDKit          3D

 18 20  0  0  0  0  0  0  0  0999 V2000
   13.9791   -5.4207   17.2809 C   0  0  0  0  0  0  0  0  0  0  0  0
   14.8868   -4.4309   17.6592 C   0  0  0  0  0  0  0  0  0  0  0  0
   16.1422   -4.7919   18.1491 C   0  0  0  0  0  0  0  0  0  0  0  0
   17.1012   -3.7424   18.6642 C   0  0  0  0  0  0  0  0  0  0  0  0
   18.3114   -4.1450   19.4785 C   0  0  0  0  0  0  0  0  0  0  0  0
   18.4850   -3.6341   18.0764 C   0  0  0  0  0  0  0  0  0  0  0  0
   16.5111   -6.0967   18.2100 N   0  0  0  0  0  0  0  0  0  0  0  0
   15.6096   -7.0346   17.8567 C   0  0  0  0  0  0  0  0  0  0  0  0
   14.3248   -6.7635   17.4182 C   0  0  0  0  0  0  0  0  0  0  0  0
   13.3777   -7.9001   17.1712 C   0  0  0  0  0  0  0  0  0  0  0  0
   13.4224   -8.3879   15.7950 N   0  0  0  0  0  0  0  0  0  0  0  0
   12.5548   -9.5569   15.6341 C   0  0  0  0  0  0  0  0  0  0  0  0
   12.4943  -10.0196   14.1681 C   0  0  2  0  0  0  0  0  0  0  0  0
   11.9044   -8.9390   13.2481 C   0  0  0  0  0  0  0  0  0  0  0  0
   11.7112   -9.4781   11.8352 C   0  0  0  0  0  0  0  0  0  0  0  0
   10.9207  -10.7823   11.8338 C   0  0  0  0  0  0  0  0  0  0  0  0
   11.5476  -11.7865   12.6910 N   0  0  0  0  0  0  0  0  0  0  0  0
   11.6616  -11.3102   14.0707 C   0  0  0  0  0  0  0  0  0  0  0  0
  1  2  2  0
  2  3  1  0
  3  4  1  0
  4  5  1  0
  5  6  1  0
  3  7  2  0
  7  8  1  0
  8  9  2  0
  9 10  1  0
 10 11  1  0
 11 12  1  0
 13 12  1  1
 13 14  1  0
 14 15  1  0
 15 16  1  0
 16 17  1  0
 17 18  1  0
  9  1  1  0
 18 13  1  0
  6  4  1  0
M  END
>  <ref_pdb>  (347) 
A4836a

>  <subsites>  (347) 
1 - Active Site,2 - A3977/A/202/1

>  <HIPPO Compound ID>  (347) 
45401

>  <energy_score>  (347) 
-35.854746

>  <fragmenstein_mode>  (347) 
expansion

>  <scratch_subdir>  (347) 
/opt/xchem-fragalysis-2/maxwin/BulkDock/SCRATCH/512176/C46475-P481

>  <smiles>  (347) 
c1cc(C2CC2)ncc1CNC[C@@H]1CCCNC1

>  <alias>  (347) 
C46475-P481

>  <ref_mols>  (347) 
A4836a,A1105b

>  <inspiration_score>  (347) 
None

>  <tags>  (347) 
BulkDock Fragalysis export,fragmenstein_placed,openbind_a71ev2a_c1_scaffolds,openbind_a71ev2a_c1_knitwork_pure

>  <fragmenstein_outcome>  (347) 
acceptable

>  <fragmenstein_error>  (347) 


>  <distance_score>  (347) 
0.975231

>  <inchikey>  (347) 
IYSNRKWEWIPQJO-UHFFFAOYSA-N

>  <name>  (347) 
C46475-P481

>  <HIPPO Pose ID>  (347) 
265713

>  <Energy>  (347) 
28.575055

>  <exports>  (347) 
['/opt/xchem-fragalysis-2/maxwin/BulkDock/OUTPUTS/openbind_a71ev2a_c1_knitwork_pure_165VWF8.sdf', '/opt/xchem-fragalysis-2/maxwin/BulkDock/OUTPUTS/openbind_a71ev2a_c1_knitwork_pure_1B07PTU.sdf', '/opt/xchem-fragalysis-2/maxwin/BulkDock/OUTPUTS/openbind_a71ev2a_c1_knitwork_pure_1B07UWE.sdf', '/opt/xchem-fragalysis-2/maxwin/openbind-hippo/a71ev2a/openbind_a71ev2a_c1_scaffold_products.sdf', '/opt/xchem-fragalysis-2/maxwin/openbind-hippo/a71ev2a/cycle_01/bulkdock/openbind_a71ev2a_c1_scaffold_products.sdf', '/opt/xchem-fragalysis-2/maxwin/openbind-hippo/a71ev2a/cycle_01/bulkdock/openbind_a71ev2a_c1_scaffolds.sdf']

>  <fragmenstein_runtime>  (347) 
5.538473

$$$$
C47047-P322
     RDKit          3D

 16 18  0  0  0  0  0  0  0  0999 V2000
   24.6439   22.1234   18.1838 C   0  0  0  0  0  0  0  0  0  0  0  0
   24.3333   21.5189   19.3092 N   0  0  0  0  0  0  0  0  0  0  0  0
   25.4996   21.2089   19.9918 C   0  0  0  0  0  0  0  0  0  0  0  0
   25.5765   20.5208   21.2185 C   0  0  0  0  0  0  0  0  0  0  0  0
   26.8221   20.2915   21.8116 C   0  0  0  0  0  0  0  0  0  0  0  0
   27.9983   20.7429   21.2059 C   0  0  0  0  0  0  0  0  0  0  0  0
   29.3312   20.5404   21.8873 C   0  0  0  0  0  0  0  0  0  0  0  0
   29.5394   21.4522   23.1114 C   0  0  2  0  0  0  0  0  0  0  0  0
   29.5918   22.9421   22.7218 C   0  0  0  0  0  0  0  0  0  0  0  0
   30.3991   23.7802   23.7145 C   0  0  0  0  0  0  0  0  0  0  0  0
   30.4147   23.1505   25.1013 C   0  0  0  0  0  0  0  0  0  0  0  0
   30.9986   21.8085   25.1179 N   0  0  0  0  0  0  0  0  0  0  0  0
   30.8201   21.0643   23.8638 C   0  0  0  0  0  0  0  0  0  0  0  0
   27.9402   21.4088   19.9713 C   0  0  0  0  0  0  0  0  0  0  0  0
   26.6839   21.6327   19.3856 C   0  0  0  0  0  0  0  0  0  0  0  0
   26.3051   22.4246   17.9040 S   0  0  0  0  0  0  0  0  0  0  0  0
  1  2  2  0
  2  3  1  0
  3  4  2  0
  4  5  1  0
  5  6  2  0
  6  7  1  0
  8  7  1  6
  8  9  1  0
  9 10  1  0
 10 11  1  0
 11 12  1  0
 12 13  1  0
  6 14  1  0
 14 15  2  0
 15 16  1  0
 16  1  1  0
 15  3  1  0
 13  8  1  0
M  END
>  <ref_pdb>  (348) 
A4351a

>  <subsites>  (348) 
1 - Active Site,5 - A3181/A/202/1

>  <HIPPO Compound ID>  (348) 
53933

>  <energy_score>  (348) 
-64.461758

>  <fragmenstein_mode>  (348) 
expansion

>  <scratch_subdir>  (348) 
/opt/xchem-fragalysis-2/maxwin/BulkDock/SCRATCH/512176/C47047-P322

>  <smiles>  (348) 
c1nc2ccc(C[C@@H]3CCCNC3)cc2s1

>  <alias>  (348) 
C47047-P322

>  <ref_mols>  (348) 
A0514b,A4351a

>  <inspiration_score>  (348) 
None

>  <tags>  (348) 
BulkDock Fragalysis export,fragmenstein_placed,openbind_a71ev2a_c1_scaffolds,openbind_a71ev2a_c1_knitwork_pure

>  <fragmenstein_outcome>  (348) 
acceptable

>  <fragmenstein_error>  (348) 


>  <distance_score>  (348) 
0.459186

>  <inchikey>  (348) 
QATXJWMNVCBKJS-UHFFFAOYSA-N

>  <name>  (348) 
C47047-P322

>  <HIPPO Pose ID>  (348) 
267310

>  <Energy>  (348) 
29.226418

>  <exports>  (348) 
['/opt/xchem-fragalysis-2/maxwin/BulkDock/OUTPUTS/openbind_a71ev2a_c1_knitwork_pure_165VWF8.sdf', '/opt/xchem-fragalysis-2/maxwin/BulkDock/OUTPUTS/openbind_a71ev2a_c1_knitwork_pure_1B07PTU.sdf', '/opt/xchem-fragalysis-2/maxwin/BulkDock/OUTPUTS/openbind_a71ev2a_c1_knitwork_pure_1B07UWE.sdf', '/opt/xchem-fragalysis-2/maxwin/openbind-hippo/a71ev2a/openbind_a71ev2a_c1_scaffold_products.sdf', '/opt/xchem-fragalysis-2/maxwin/openbind-hippo/a71ev2a/cycle_01/bulkdock/openbind_a71ev2a_c1_scaffold_products.sdf', '/opt/xchem-fragalysis-2/maxwin/openbind-hippo/a71ev2a/cycle_01/bulkdock/openbind_a71ev2a_c1_scaffolds.sdf']

>  <fragmenstein_runtime>  (348) 
1.972153

$$$$
C47049-P322
     RDKit          3D

 18 20  0  0  0  0  0  0  0  0999 V2000
   22.4203   22.9726   17.6854 C   0  0  0  0  0  0  0  0  0  0  0  0
   23.8620   22.9088   17.2043 C   0  0  0  0  0  0  0  0  0  0  0  0
   24.7740   22.2743   18.2077 C   0  0  0  0  0  0  0  0  0  0  0  0
   24.3797   21.6162   19.2770 N   0  0  0  0  0  0  0  0  0  0  0  0
   25.4821   21.2120   20.0098 C   0  0  0  0  0  0  0  0  0  0  0  0
   25.4419   20.4929   21.2191 C   0  0  0  0  0  0  0  0  0  0  0  0
   26.6305   20.2026   21.8927 C   0  0  0  0  0  0  0  0  0  0  0  0
   27.8641   20.6147   21.3799 C   0  0  0  0  0  0  0  0  0  0  0  0
   29.1241   20.3698   22.1773 C   0  0  0  0  0  0  0  0  0  0  0  0
   29.3117   21.3925   23.3217 C   0  0  2  0  0  0  0  0  0  0  0  0
   29.8539   22.7453   22.8275 C   0  0  0  0  0  0  0  0  0  0  0  0
   31.3369   22.6695   22.4670 C   0  0  0  0  0  0  0  0  0  0  0  0
   32.1542   22.0551   23.6017 C   0  0  0  0  0  0  0  0  0  0  0  0
   31.6401   20.7496   24.0171 N   0  0  0  0  0  0  0  0  0  0  0  0
   30.2381   20.8444   24.4224 C   0  0  0  0  0  0  0  0  0  0  0  0
   27.9245   21.2879   20.1498 C   0  0  0  0  0  0  0  0  0  0  0  0
   26.7212   21.5839   19.4889 C   0  0  0  0  0  0  0  0  0  0  0  0
   26.4748   22.4252   18.0096 S   0  0  0  0  0  0  0  0  0  0  0  0
  1  2  1  0
  2  3  1  0
  3  4  2  0
  4  5  1  0
  5  6  2  0
  6  7  1  0
  7  8  2  0
  8  9  1  0
 10  9  1  6
 10 11  1  0
 11 12  1  0
 12 13  1  0
 13 14  1  0
 14 15  1  0
  8 16  1  0
 16 17  2  0
 17 18  1  0
 18  3  1  0
 17  5  1  0
 15 10  1  0
M  END
>  <ref_pdb>  (349) 
A4351a

>  <subsites>  (349) 
1 - Active Site,5 - A3181/A/202/1

>  <HIPPO Compound ID>  (349) 
71025

>  <energy_score>  (349) 
-78.039505

>  <fragmenstein_mode>  (349) 
expansion

>  <scratch_subdir>  (349) 
/opt/xchem-fragalysis-2/maxwin/BulkDock/SCRATCH/512176/C47049-P322

>  <smiles>  (349) 
CCc1nc2ccc(C[C@@H]3CCCNC3)cc2s1

>  <alias>  (349) 
C47049-P322

>  <ref_mols>  (349) 
A0514b,A4351a

>  <inspiration_score>  (349) 
None

>  <tags>  (349) 
BulkDock Fragalysis export,fragmenstein_placed,openbind_a71ev2a_c1_scaffolds,openbind_a71ev2a_c1_knitwork_pure

>  <fragmenstein_outcome>  (349) 
acceptable

>  <fragmenstein_error>  (349) 


>  <distance_score>  (349) 
0.505697

>  <inchikey>  (349) 
GDWHZKUVFYWLOX-UHFFFAOYSA-N

>  <name>  (349) 
C47049-P322

>  <HIPPO Pose ID>  (349) 
267311

>  <Energy>  (349) 
25.952098

>  <exports>  (349) 
['/opt/xchem-fragalysis-2/maxwin/BulkDock/OUTPUTS/openbind_a71ev2a_c1_knitwork_pure_165VWF8.sdf', '/opt/xchem-fragalysis-2/maxwin/BulkDock/OUTPUTS/openbind_a71ev2a_c1_knitwork_pure_1B07PTU.sdf', '/opt/xchem-fragalysis-2/maxwin/BulkDock/OUTPUTS/openbind_a71ev2a_c1_knitwork_pure_1B07UWE.sdf', '/opt/xchem-fragalysis-2/maxwin/openbind-hippo/a71ev2a/openbind_a71ev2a_c1_scaffold_products.sdf', '/opt/xchem-fragalysis-2/maxwin/openbind-hippo/a71ev2a/cycle_01/bulkdock/openbind_a71ev2a_c1_scaffold_products.sdf', '/opt/xchem-fragalysis-2/maxwin/openbind-hippo/a71ev2a/cycle_01/bulkdock/openbind_a71ev2a_c1_scaffolds.sdf']

>  <fragmenstein_runtime>  (349) 
1.808028

$$$$
C47054-P322
     RDKit          3D

 17 19  0  0  0  0  0  0  0  0999 V2000
   23.7141   22.7120   17.2000 C   0  0  0  0  0  0  0  0  0  0  0  0
   24.6868   22.2002   18.2012 C   0  0  0  0  0  0  0  0  0  0  0  0
   24.3505   21.5432   19.2905 N   0  0  0  0  0  0  0  0  0  0  0  0
   25.4929   21.2030   19.9977 C   0  0  0  0  0  0  0  0  0  0  0  0
   25.5304   20.4684   21.1992 C   0  0  0  0  0  0  0  0  0  0  0  0
   26.7544   20.2291   21.8323 C   0  0  0  0  0  0  0  0  0  0  0  0
   27.9454   20.7223   21.2936 C   0  0  0  0  0  0  0  0  0  0  0  0
   29.2517   20.5427   22.0297 C   0  0  0  0  0  0  0  0  0  0  0  0
   29.7035   21.8033   22.7965 C   0  0  2  0  0  0  0  0  0  0  0  0
   31.1341   21.6096   23.3296 C   0  0  0  0  0  0  0  0  0  0  0  0
   31.4858   22.5770   24.4599 C   0  0  0  0  0  0  0  0  0  0  0  0
   30.5408   23.7695   24.5065 C   0  0  0  0  0  0  0  0  0  0  0  0
   29.1535   23.3584   24.7117 N   0  0  0  0  0  0  0  0  0  0  0  0
   28.7605   22.1629   23.9558 C   0  0  0  0  0  0  0  0  0  0  0  0
   27.9282   21.4257   20.0783 C   0  0  0  0  0  0  0  0  0  0  0  0
   26.6939   21.6546   19.4508 C   0  0  0  0  0  0  0  0  0  0  0  0
   26.3637   22.4903   17.9848 S   0  0  0  0  0  0  0  0  0  0  0  0
  1  2  1  0
  2  3  2  0
  3  4  1  0
  4  5  2  0
  5  6  1  0
  6  7  2  0
  7  8  1  0
  9  8  1  1
  9 10  1  0
 10 11  1  0
 11 12  1  0
 12 13  1  0
 13 14  1  0
  7 15  1  0
 15 16  2  0
 16 17  1  0
 17  2  1  0
 16  4  1  0
 14  9  1  0
M  END
>  <ref_pdb>  (350) 
A4351a

>  <subsites>  (350) 
1 - Active Site,5 - A3181/A/202/1

>  <HIPPO Compound ID>  (350) 
53958

>  <energy_score>  (350) 
-82.932193

>  <fragmenstein_mode>  (350) 
expansion

>  <scratch_subdir>  (350) 
/opt/xchem-fragalysis-2/maxwin/BulkDock/SCRATCH/512176/C47054-P322

>  <smiles>  (350) 
Cc1nc2ccc(C[C@@H]3CCCNC3)cc2s1

>  <alias>  (350) 
C47054-P322

>  <ref_mols>  (350) 
A0514b,A4351a

>  <inspiration_score>  (350) 
None

>  <tags>  (350) 
BulkDock Fragalysis export,fragmenstein_placed,openbind_a71ev2a_c1_scaffolds,openbind_a71ev2a_c1_knitwork_pure

>  <fragmenstein_outcome>  (350) 
acceptable

>  <fragmenstein_error>  (350) 


>  <distance_score>  (350) 
0.458313

>  <inchikey>  (350) 
WCIIHXGCHJLLNO-UHFFFAOYSA-N

>  <name>  (350) 
C47054-P322

>  <HIPPO Pose ID>  (350) 
267314

>  <Energy>  (350) 
30.789079

>  <exports>  (350) 
['/opt/xchem-fragalysis-2/maxwin/BulkDock/OUTPUTS/openbind_a71ev2a_c1_knitwork_pure_165VWF8.sdf', '/opt/xchem-fragalysis-2/maxwin/BulkDock/OUTPUTS/openbind_a71ev2a_c1_knitwork_pure_1B07PTU.sdf', '/opt/xchem-fragalysis-2/maxwin/BulkDock/OUTPUTS/openbind_a71ev2a_c1_knitwork_pure_1B07UWE.sdf', '/opt/xchem-fragalysis-2/maxwin/openbind-hippo/a71ev2a/openbind_a71ev2a_c1_scaffold_products.sdf', '/opt/xchem-fragalysis-2/maxwin/openbind-hippo/a71ev2a/cycle_01/bulkdock/openbind_a71ev2a_c1_scaffold_products.sdf', '/opt/xchem-fragalysis-2/maxwin/openbind-hippo/a71ev2a/cycle_01/bulkdock/openbind_a71ev2a_c1_scaffolds.sdf']

>  <fragmenstein_runtime>  (350) 
1.398827

$$$$
C47072-P322
     RDKit          3D

 21 23  0  0  0  0  0  0  0  0999 V2000
   30.2008   22.4263   20.4319 O   0  0  0  0  0  0  0  0  0  0  0  0
   29.5273   21.9148   19.6318 C   0  0  0  0  0  0  0  0  0  0  0  0
   29.7598   21.6912   18.1310 N   0  0  0  0  0  0  0  0  0  0  0  0
   30.9224   21.9671   17.3044 C   0  0  2  0  0  0  0  0  0  0  0  0
   30.6491   23.1258   16.3477 C   0  0  0  0  0  0  0  0  0  0  0  0
   29.7257   22.7338   15.1890 C   0  0  0  0  0  0  0  0  0  0  0  0
   29.6379   21.2260   14.9527 C   0  0  0  0  0  0  0  0  0  0  0  0
   30.9214   20.5793   15.1647 N   0  0  0  0  0  0  0  0  0  0  0  0
   31.4097   20.7136   16.5431 C   0  0  0  0  0  0  0  0  0  0  0  0
   28.2296   21.3487   20.0856 C   0  0  0  0  0  0  0  0  0  0  0  0
   28.2329   20.5651   21.2533 C   0  0  0  0  0  0  0  0  0  0  0  0
   27.0504   20.0651   21.7830 C   0  0  0  0  0  0  0  0  0  0  0  0
   25.8331   20.3520   21.1635 C   0  0  0  0  0  0  0  0  0  0  0  0
   25.7993   21.1322   19.9871 C   0  0  0  0  0  0  0  0  0  0  0  0
   24.6475   21.4710   19.2942 N   0  0  0  0  0  0  0  0  0  0  0  0
   24.9531   22.1897   18.2301 C   0  0  0  0  0  0  0  0  0  0  0  0
   23.9604   22.7155   17.2372 C   0  0  0  0  0  0  0  0  0  0  0  0
   23.4376   23.9062   17.6534 F   0  0  0  0  0  0  0  0  0  0  0  0
   24.5084   22.9608   16.0138 F   0  0  0  0  0  0  0  0  0  0  0  0
   26.6226   22.5442   18.0469 S   0  0  0  0  0  0  0  0  0  0  0  0
   26.9989   21.6208   19.4547 C   0  0  0  0  0  0  0  0  0  0  0  0
  1  2  2  0
  2  3  1  0
  4  3  1  6
  4  5  1  0
  5  6  1  0
  6  7  1  0
  7  8  1  0
  8  9  1  0
  2 10  1  0
 10 11  2  0
 11 12  1  0
 12 13  2  0
 13 14  1  0
 14 15  1  0
 15 16  2  0
 16 17  1  0
 17 18  1  0
 17 19  1  0
 16 20  1  0
 20 21  1  0
  9  4  1  0
 21 10  1  0
 21 14  2  0
M  END
>  <ref_pdb>  (351) 
A4351a

>  <subsites>  (351) 
1 - Active Site,5 - A3181/A/202/1

>  <HIPPO Compound ID>  (351) 
56036

>  <energy_score>  (351) 
-57.615326

>  <fragmenstein_mode>  (351) 
expansion

>  <scratch_subdir>  (351) 
/opt/xchem-fragalysis-2/maxwin/BulkDock/SCRATCH/512176/C47072-P322

>  <smiles>  (351) 
O=C(N[C@@H]1CCCNC1)c1cccc2nc(C(F)F)sc12

>  <alias>  (351) 
C47072-P322

>  <ref_mols>  (351) 
A0514b,A4351a

>  <inspiration_score>  (351) 
None

>  <tags>  (351) 
BulkDock Fragalysis export,fragmenstein_placed,openbind_a71ev2a_c1_scaffolds,openbind_a71ev2a_c1_knitwork_pure

>  <fragmenstein_outcome>  (351) 
acceptable

>  <fragmenstein_error>  (351) 


>  <distance_score>  (351) 
0.368377

>  <inchikey>  (351) 
RNMKDQJFKQUPLR-UHFFFAOYSA-N

>  <name>  (351) 
C47072-P322

>  <HIPPO Pose ID>  (351) 
267320

>  <Energy>  (351) 
79.56403

>  <exports>  (351) 
['/opt/xchem-fragalysis-2/maxwin/BulkDock/OUTPUTS/openbind_a71ev2a_c1_knitwork_pure_165VWF8.sdf', '/opt/xchem-fragalysis-2/maxwin/BulkDock/OUTPUTS/openbind_a71ev2a_c1_knitwork_pure_1B07PTU.sdf', '/opt/xchem-fragalysis-2/maxwin/BulkDock/OUTPUTS/openbind_a71ev2a_c1_knitwork_pure_1B07UWE.sdf', '/opt/xchem-fragalysis-2/maxwin/openbind-hippo/a71ev2a/openbind_a71ev2a_c1_scaffold_products.sdf', '/opt/xchem-fragalysis-2/maxwin/openbind-hippo/a71ev2a/cycle_01/bulkdock/openbind_a71ev2a_c1_scaffold_products.sdf', '/opt/xchem-fragalysis-2/maxwin/openbind-hippo/a71ev2a/cycle_01/bulkdock/openbind_a71ev2a_c1_scaffolds.sdf']

>  <fragmenstein_runtime>  (351) 
1.665143

$$$$
C51714-P354
     RDKit          3D

 22 24  0  0  0  0  0  0  0  0999 V2000
    5.7951   14.1305   30.6279 C   0  0  0  0  0  0  0  0  0  0  0  0
    4.8362   13.3133   29.7663 C   0  0  2  0  0  0  0  0  0  0  0  0
    5.5061   12.8886   28.5500 N   0  0  0  0  0  0  0  0  0  0  0  0
    5.1855   11.7348   27.5824 C   0  0  0  0  0  0  0  0  0  0  0  0
    4.2899   10.9906   27.5656 O   0  0  0  0  0  0  0  0  0  0  0  0
    6.2193   11.6135   26.5114 C   0  0  0  0  0  0  0  0  0  0  0  0
    6.7704   12.7310   25.8831 C   0  0  0  0  0  0  0  0  0  0  0  0
    7.7320   12.5531   24.8852 C   0  0  0  0  0  0  0  0  0  0  0  0
    8.5083   14.0924   24.1076 Br  0  0  0  0  0  0  0  0  0  0  0  0
    8.1387   11.2753   24.4928 C   0  0  0  0  0  0  0  0  0  0  0  0
    7.5863   10.1679   25.1243 C   0  0  0  0  0  0  0  0  0  0  0  0
    6.6189   10.3318   26.1186 C   0  0  0  0  0  0  0  0  0  0  0  0
    7.9556    8.8867   24.8462 O   0  0  0  0  0  0  0  0  0  0  0  0
    8.7393    8.7420   23.6616 C   0  0  0  0  0  0  0  0  0  0  0  0
    9.6544    9.8970   23.3711 C   0  0  0  0  0  0  0  0  0  0  0  0
    9.0336   11.1703   23.4672 O   0  0  0  0  0  0  0  0  0  0  0  0
    3.4931   14.0082   29.4311 C   0  0  1  0  0  0  0  0  0  0  0  0
    2.6036   14.1738   30.6751 C   0  0  0  0  0  0  0  0  0  0  0  0
    1.2923   14.8667   30.3089 C   0  0  0  0  0  0  0  0  0  0  0  0
    1.5487   16.1763   29.5666 C   0  0  0  0  0  0  0  0  0  0  0  0
    2.3803   15.9740   28.3781 N   0  0  0  0  0  0  0  0  0  0  0  0
    3.6681   15.3665   28.7295 C   0  0  0  0  0  0  0  0  0  0  0  0
  2  1  1  6
  2  3  1  0
  3  4  1  0
  4  5  2  0
  4  6  1  0
  6  7  2  0
  7  8  1  0
  8  9  1  0
  8 10  2  0
 10 11  1  0
 11 12  2  0
 11 13  1  0
 13 14  1  0
 14 15  1  0
 15 16  1  0
  2 17  1  0
 17 18  1  1
 18 19  1  0
 19 20  1  0
 20 21  1  0
 21 22  1  0
 12  6  1  0
 22 17  1  0
 16 10  1  0
M  END
>  <ref_pdb>  (352) 
A4415a

>  <subsites>  (352) 
1 - Active Site,5 - A3181/A/202/1

>  <HIPPO Compound ID>  (352) 
46686

>  <energy_score>  (352) 
-15.799813

>  <fragmenstein_mode>  (352) 
expansion

>  <scratch_subdir>  (352) 
/opt/xchem-fragalysis-2/maxwin/BulkDock/SCRATCH/512176/C51714-P354

>  <smiles>  (352) 
C[C@H](NC(=O)c1cc(Br)c2c(c1)OCCO2)[C@H]1CCCNC1

>  <alias>  (352) 
C51714-P354

>  <ref_mols>  (352) 
A3181b,A4415a

>  <inspiration_score>  (352) 
None

>  <tags>  (352) 
BulkDock Fragalysis export,fragmenstein_placed,openbind_a71ev2a_c1_scaffolds,openbind_a71ev2a_c1_knitwork_pure

>  <fragmenstein_outcome>  (352) 
acceptable

>  <fragmenstein_error>  (352) 


>  <distance_score>  (352) 
0.609678

>  <inchikey>  (352) 
QYLPLGFXGKSQBO-UHFFFAOYSA-N

>  <name>  (352) 
C51714-P354

>  <HIPPO Pose ID>  (352) 
267388

>  <Energy>  (352) 
59.18647

>  <exports>  (352) 
['/opt/xchem-fragalysis-2/maxwin/BulkDock/OUTPUTS/openbind_a71ev2a_c1_knitwork_pure_165VWF8.sdf', '/opt/xchem-fragalysis-2/maxwin/BulkDock/OUTPUTS/openbind_a71ev2a_c1_knitwork_pure_1B07PTU.sdf', '/opt/xchem-fragalysis-2/maxwin/BulkDock/OUTPUTS/openbind_a71ev2a_c1_knitwork_pure_1B07UWE.sdf', '/opt/xchem-fragalysis-2/maxwin/openbind-hippo/a71ev2a/openbind_a71ev2a_c1_scaffold_products.sdf', '/opt/xchem-fragalysis-2/maxwin/openbind-hippo/a71ev2a/cycle_01/bulkdock/openbind_a71ev2a_c1_scaffold_products.sdf', '/opt/xchem-fragalysis-2/maxwin/openbind-hippo/a71ev2a/cycle_01/bulkdock/openbind_a71ev2a_c1_scaffolds.sdf']

>  <fragmenstein_runtime>  (352) 
4.510394

$$$$
C45903-P405
     RDKit          3D

 21 23  0  0  0  0  0  0  0  0999 V2000
   22.3753   19.1971   24.2562 O   0  0  0  0  0  0  0  0  0  0  0  0
   23.4848   18.4593   23.7345 C   0  0  1  0  0  0  0  0  0  0  0  0
   24.7253   19.3518   23.8622 C   0  0  0  0  0  0  0  0  0  0  0  0
   25.9002   18.9357   22.9729 C   0  0  0  0  0  0  0  0  0  0  0  0
   25.7542   19.2990   21.5652 N   0  0  0  0  0  0  0  0  0  0  0  0
   26.2827   20.5628   21.2361 C   0  0  0  0  0  0  0  0  0  0  0  0
   25.5627   21.6936   21.5429 C   0  0  0  0  0  0  0  0  0  0  0  0
   26.1865   22.8857   21.3104 C   0  0  0  0  0  0  0  0  0  0  0  0
   27.4080   22.9864   20.7747 N   0  0  0  0  0  0  0  0  0  0  0  0
   28.0344   21.8512   20.4173 C   0  0  0  0  0  0  0  0  0  0  0  0
   29.2411   21.9796   19.7091 N   0  0  0  0  0  0  0  0  0  0  0  0
   30.0727   20.7848   19.7033 C   0  0  0  0  0  0  0  0  0  0  0  0
   31.2123   20.9273   18.6959 C   0  0  0  0  0  0  0  0  0  0  0  0
   32.0193   22.1925   18.9514 C   0  0  0  0  0  0  0  0  0  0  0  0
   31.1004   23.4070   18.9653 C   0  0  0  0  0  0  0  0  0  0  0  0
   29.9457   23.2385   19.9555 C   0  0  0  0  0  0  0  0  0  0  0  0
   27.4992   20.6358   20.6608 N   0  0  0  0  0  0  0  0  0  0  0  0
   23.6582   17.1643   24.5275 C   0  0  0  0  0  0  0  0  0  0  0  0
   23.6705   17.2259   26.0832 C   0  0  0  0  0  0  0  0  0  0  0  0
   22.9787   15.8481   26.0704 C   0  0  0  0  0  0  0  0  0  0  0  0
   22.4395   16.2099   24.6718 C   0  0  0  0  0  0  0  0  0  0  0  0
  2  1  1  1
  2  3  1  0
  3  4  1  0
  4  5  1  0
  5  6  1  0
  6  7  2  0
  7  8  1  0
  8  9  2  0
  9 10  1  0
 10 11  1  0
 11 12  1  0
 12 13  1  0
 13 14  1  0
 14 15  1  0
 15 16  1  0
 10 17  2  0
  2 18  1  0
 18 19  1  0
 19 20  1  0
 20 21  1  0
 17  6  1  0
 21 18  1  0
 16 11  1  0
M  END
>  <ref_pdb>  (353) 
A4570a

>  <subsites>  (353) 
1 - Active Site,5 - A3181/A/202/1

>  <HIPPO Compound ID>  (353) 
48529

>  <energy_score>  (353) 
-34.013784

>  <fragmenstein_mode>  (353) 
expansion

>  <scratch_subdir>  (353) 
/opt/xchem-fragalysis-2/maxwin/BulkDock/SCRATCH/512176/C45903-P405

>  <smiles>  (353) 
O[C@@H](CCNc1ccnc(N2CCCCC2)n1)C1CCC1

>  <alias>  (353) 
C45903-P405

>  <ref_mols>  (353) 
A1146a,A4570a

>  <inspiration_score>  (353) 
None

>  <tags>  (353) 
BulkDock Fragalysis export,fragmenstein_placed,openbind_a71ev2a_c1_scaffolds,openbind_a71ev2a_c1_knitwork_pure

>  <fragmenstein_outcome>  (353) 
acceptable

>  <fragmenstein_error>  (353) 


>  <distance_score>  (353) 
0.611771

>  <inchikey>  (353) 
ADNXPKLKFSZSFL-UHFFFAOYSA-N

>  <name>  (353) 
C45903-P405

>  <HIPPO Pose ID>  (353) 
267608

>  <Energy>  (353) 
-84.708341

>  <exports>  (353) 
['/opt/xchem-fragalysis-2/maxwin/BulkDock/OUTPUTS/openbind_a71ev2a_c1_knitwork_pure_165VWF8.sdf', '/opt/xchem-fragalysis-2/maxwin/BulkDock/OUTPUTS/openbind_a71ev2a_c1_knitwork_pure_1B07PTU.sdf', '/opt/xchem-fragalysis-2/maxwin/BulkDock/OUTPUTS/openbind_a71ev2a_c1_knitwork_pure_1B07UWE.sdf', '/opt/xchem-fragalysis-2/maxwin/openbind-hippo/a71ev2a/openbind_a71ev2a_c1_scaffold_products.sdf', '/opt/xchem-fragalysis-2/maxwin/openbind-hippo/a71ev2a/cycle_01/bulkdock/openbind_a71ev2a_c1_scaffold_products.sdf', '/opt/xchem-fragalysis-2/maxwin/openbind-hippo/a71ev2a/cycle_01/bulkdock/openbind_a71ev2a_c1_scaffolds.sdf']

>  <fragmenstein_runtime>  (353) 
59.605345

$$$$
C27143-P405
     RDKit          3D

 22 24  0  0  0  0  0  0  0  0999 V2000
   26.5600   20.3780   21.1402 C   0  0  0  0  0  0  0  0  0  0  0  0
   25.9392   21.3667   21.8518 C   0  0  0  0  0  0  0  0  0  0  0  0
   26.5466   22.5998   21.8198 C   0  0  0  0  0  0  0  0  0  0  0  0
   25.9222   23.6596   22.5133 N   0  0  0  0  0  0  0  0  0  0  0  0
   26.6544   24.9236   22.4552 C   0  0  0  0  0  0  0  0  0  0  0  0
   25.8453   26.0221   23.1378 C   0  0  0  0  0  0  0  0  0  0  0  0
   24.5878   26.3816   22.3545 C   0  0  0  0  0  0  0  0  0  0  0  0
   23.9193   27.4343   23.0540 O   0  0  0  0  0  0  0  0  0  0  0  0
   22.7713   27.9124   22.3654 C   0  0  1  0  0  0  0  0  0  0  0  0
   21.6005   26.9552   22.3873 C   0  0  0  0  0  0  0  0  0  0  0  0
   20.4309   27.8857   22.1572 C   0  0  0  0  0  0  0  0  0  0  0  0
   20.7723   29.1445   22.7545 O   0  0  0  0  0  0  0  0  0  0  0  0
   22.1725   29.1186   23.0752 C   0  0  0  0  0  0  0  0  0  0  0  0
   27.6696   22.8147   21.1166 N   0  0  0  0  0  0  0  0  0  0  0  0
   28.2255   21.7942   20.4364 C   0  0  0  0  0  0  0  0  0  0  0  0
   29.3811   22.0296   19.6738 N   0  0  0  0  0  0  0  0  0  0  0  0
   30.2354   20.8516   19.5339 C   0  0  0  0  0  0  0  0  0  0  0  0
   31.3345   21.1069   18.5058 C   0  0  0  0  0  0  0  0  0  0  0  0
   32.1257   22.3615   18.8485 C   0  0  0  0  0  0  0  0  0  0  0  0
   31.1865   23.5515   19.0051 C   0  0  0  0  0  0  0  0  0  0  0  0
   30.0736   23.2706   20.0167 C   0  0  0  0  0  0  0  0  0  0  0  0
   27.6831   20.5670   20.4303 N   0  0  0  0  0  0  0  0  0  0  0  0
  1  2  2  0
  2  3  1  0
  3  4  1  0
  4  5  1  0
  5  6  1  0
  6  7  1  0
  7  8  1  0
  9  8  1  1
  9 10  1  0
 10 11  1  0
 11 12  1  0
 12 13  1  0
  3 14  2  0
 14 15  1  0
 15 16  1  0
 16 17  1  0
 17 18  1  0
 18 19  1  0
 19 20  1  0
 20 21  1  0
 15 22  2  0
 22  1  1  0
 13  9  1  0
 21 16  1  0
M  END
>  <ref_pdb>  (354) 
A4570a

>  <subsites>  (354) 
1 - Active Site,5 - A3181/A/202/1

>  <HIPPO Compound ID>  (354) 
63712

>  <energy_score>  (354) 
-90.892947

>  <fragmenstein_mode>  (354) 
expansion

>  <scratch_subdir>  (354) 
/opt/xchem-fragalysis-2/maxwin/BulkDock/SCRATCH/512176/C27143-P405

>  <smiles>  (354) 
c1cc(NCCCO[C@H]2CCOC2)nc(N2CCCCC2)n1

>  <alias>  (354) 
C27143-P405

>  <ref_mols>  (354) 
A1146a,A4570a

>  <inspiration_score>  (354) 
None

>  <tags>  (354) 
BulkDock Fragalysis export,fragmenstein_placed,openbind_a71ev2a_c1_scaffolds,openbind_a71ev2a_c1_knitwork_pure

>  <fragmenstein_outcome>  (354) 
acceptable

>  <fragmenstein_error>  (354) 


>  <distance_score>  (354) 
0.474083

>  <inchikey>  (354) 
USNXQARUIFIATO-UHFFFAOYSA-N

>  <name>  (354) 
C27143-P405

>  <HIPPO Pose ID>  (354) 
267612

>  <Energy>  (354) 
-89.873341

>  <exports>  (354) 
['/opt/xchem-fragalysis-2/maxwin/BulkDock/OUTPUTS/openbind_a71ev2a_c1_knitwork_pure_165VWF8.sdf', '/opt/xchem-fragalysis-2/maxwin/BulkDock/OUTPUTS/openbind_a71ev2a_c1_knitwork_pure_1B07PTU.sdf', '/opt/xchem-fragalysis-2/maxwin/BulkDock/OUTPUTS/openbind_a71ev2a_c1_knitwork_pure_1B07UWE.sdf', '/opt/xchem-fragalysis-2/maxwin/openbind-hippo/a71ev2a/openbind_a71ev2a_c1_scaffold_products.sdf', '/opt/xchem-fragalysis-2/maxwin/openbind-hippo/a71ev2a/cycle_01/bulkdock/openbind_a71ev2a_c1_scaffold_products.sdf', '/opt/xchem-fragalysis-2/maxwin/openbind-hippo/a71ev2a/cycle_01/bulkdock/openbind_a71ev2a_c1_scaffolds.sdf']

>  <fragmenstein_runtime>  (354) 
18.136478

$$$$
C70623-P205
     RDKit          3D

 23 25  0  0  0  0  0  0  0  0999 V2000
    1.7843   13.7232   22.7644 C   0  0  0  0  0  0  0  0  0  0  0  0
    2.8022   14.7284   22.2334 C   0  0  1  0  0  0  0  0  0  0  0  0
    3.9467   14.8421   23.1165 N   0  0  0  0  0  0  0  0  0  0  0  0
    5.4144   14.3680   22.9276 C   0  0  0  0  0  0  0  0  0  0  0  0
    5.9262   13.8958   22.0237 O   0  0  0  0  0  0  0  0  0  0  0  0
    5.9824   14.7278   24.3297 N   0  0  0  0  0  0  0  0  0  0  0  0
    7.2836   14.4773   24.9038 C   0  0  0  0  0  0  0  0  0  0  0  0
    7.8155   13.1007   24.5994 C   0  0  0  0  0  0  0  0  0  0  0  0
    7.1220   11.9842   25.1183 C   0  0  0  0  0  0  0  0  0  0  0  0
    7.5413   10.6852   24.8500 C   0  0  0  0  0  0  0  0  0  0  0  0
    8.6452   10.4879   24.0361 C   0  0  0  0  0  0  0  0  0  0  0  0
    9.3464   11.5918   23.5352 C   0  0  0  0  0  0  0  0  0  0  0  0
    8.9763   12.9141   23.8214 C   0  0  0  0  0  0  0  0  0  0  0  0
    9.7094   14.0108   23.3750 N   0  0  0  0  0  0  0  0  0  0  0  0
    9.2034   14.7107   22.1720 C   0  0  0  0  0  0  0  0  0  0  0  0
   10.4471   15.3219   21.5142 C   0  0  0  0  0  0  0  0  0  0  0  0
   11.5060   15.2656   22.6016 C   0  0  0  0  0  0  0  0  0  0  0  0
   11.1696   13.9559   23.3001 C   0  0  0  0  0  0  0  0  0  0  0  0
    3.1318   14.4792   20.7985 C   0  0  0  0  0  0  0  0  0  0  0  0
    2.9987   15.3227   19.7903 N   0  0  0  0  0  0  0  0  0  0  0  0
    3.2358   14.5419   18.6858 C   0  0  0  0  0  0  0  0  0  0  0  0
    3.5241   13.2584   19.0669 C   0  0  0  0  0  0  0  0  0  0  0  0
    3.4487   13.1964   20.4231 O   0  0  0  0  0  0  0  0  0  0  0  0
  2  1  1  1
  2  3  1  0
  3  4  1  0
  4  5  2  0
  4  6  1  0
  6  7  1  0
  7  8  1  0
  8  9  2  0
  9 10  1  0
 10 11  2  0
 11 12  1  0
 12 13  2  0
 13 14  1  0
 14 15  1  0
 15 16  1  0
 16 17  1  0
 17 18  1  0
  2 19  1  0
 19 20  2  0
 20 21  1  0
 21 22  2  0
 22 23  1  0
 13  8  1  0
 18 14  1  0
 23 19  1  0
M  END
>  <ref_pdb>  (355) 
A3694a

>  <subsites>  (355) 
1 - Active Site

>  <HIPPO Compound ID>  (355) 
70623

>  <energy_score>  (355) 
-2.205602

>  <fragmenstein_mode>  (355) 
expansion

>  <scratch_subdir>  (355) 
/opt/xchem-fragalysis-2/maxwin/BulkDock/SCRATCH/512176/C70623-P205

>  <smiles>  (355) 
C[C@@H](NC(=O)NCc1ccccc1N1CCCC1)c1ncco1

>  <alias>  (355) 
C70623-P205

>  <ref_mols>  (355) 
A3623a,A3694a

>  <inspiration_score>  (355) 
None

>  <tags>  (355) 
BulkDock Fragalysis export,fragmenstein_placed,openbind_a71ev2a_c1_scaffolds,openbind_a71ev2a_c1_knitwork_pure

>  <fragmenstein_outcome>  (355) 
acceptable

>  <fragmenstein_error>  (355) 


>  <distance_score>  (355) 
0.979663

>  <inchikey>  (355) 
XYEZCRBOLJWWSO-UHFFFAOYSA-N

>  <name>  (355) 
C70623-P205

>  <HIPPO Pose ID>  (355) 
268211

>  <Energy>  (355) 
-1.988828

>  <exports>  (355) 
['/opt/xchem-fragalysis-2/maxwin/BulkDock/OUTPUTS/openbind_a71ev2a_c1_knitwork_pure_165VWF8.sdf', '/opt/xchem-fragalysis-2/maxwin/BulkDock/OUTPUTS/openbind_a71ev2a_c1_knitwork_pure_1B07PTU.sdf', '/opt/xchem-fragalysis-2/maxwin/BulkDock/OUTPUTS/openbind_a71ev2a_c1_knitwork_pure_1B07UWE.sdf', '/opt/xchem-fragalysis-2/maxwin/openbind-hippo/a71ev2a/openbind_a71ev2a_c1_scaffold_products.sdf', '/opt/xchem-fragalysis-2/maxwin/openbind-hippo/a71ev2a/cycle_01/bulkdock/openbind_a71ev2a_c1_scaffold_products.sdf', '/opt/xchem-fragalysis-2/maxwin/openbind-hippo/a71ev2a/cycle_01/bulkdock/openbind_a71ev2a_c1_scaffolds.sdf']

>  <fragmenstein_runtime>  (355) 
8.354726

$$$$
C97238-P252
     RDKit          3D

 11 11  0  0  0  0  0  0  0  0999 V2000
    6.6141   15.9408   26.3754 O   0  0  0  0  0  0  0  0  0  0  0  0
    6.2554   15.6430   25.2388 C   0  0  0  0  0  0  0  0  0  0  0  0
    6.6168   14.3500   24.5486 C   0  0  0  0  0  0  0  0  0  0  0  0
    7.7632   13.6678   25.2727 C   0  0  0  0  0  0  0  0  0  0  0  0
    8.0096   12.2614   24.8446 C   0  0  0  0  0  0  0  0  0  0  0  0
    7.3190   11.0953   25.2466 C   0  0  0  0  0  0  0  0  0  0  0  0
    5.8595   11.1057   26.4345 Br  0  0  0  0  0  0  0  0  0  0  0  0
    7.8337    9.9688   24.7540 N   0  0  0  0  0  0  0  0  0  0  0  0
    8.8666   10.4060   24.0050 N   0  0  0  0  0  0  0  0  0  0  0  0
    9.0165   11.7626   24.0503 C   0  0  0  0  0  0  0  0  0  0  0  0
   10.3856   12.7761   23.2213 Br  0  0  0  0  0  0  0  0  0  0  0  0
  1  2  2  0
  2  3  1  0
  3  4  1  0
  4  5  1  0
  5  6  1  0
  6  7  1  0
  6  8  2  0
  8  9  1  0
  9 10  1  0
 10 11  1  0
 10  5  2  0
M  END
>  <ref_pdb>  (356) 
A3975a

>  <subsites>  (356) 
1 - Active Site

>  <HIPPO Compound ID>  (356) 
97238

>  <energy_score>  (356) 
-19.127108

>  <fragmenstein_mode>  (356) 
expansion

>  <scratch_subdir>  (356) 
/opt/xchem-fragalysis-2/maxwin/BulkDock/SCRATCH/512176/C97238-P252

>  <smiles>  (356) 
O=CCCc1c(Br)n[nH]c1Br

>  <alias>  (356) 
C97238-P252

>  <ref_mols>  (356) 
A0556a,A3975a

>  <inspiration_score>  (356) 
None

>  <tags>  (356) 
BulkDock Fragalysis export,fragmenstein_placed,openbind_a71ev2a_c1_scaffolds,openbind_a71ev2a_c1_knitwork_pure

>  <fragmenstein_outcome>  (356) 
acceptable

>  <fragmenstein_error>  (356) 


>  <distance_score>  (356) 
0.82627

>  <inchikey>  (356) 
INEPPSBQJWJDAN-UHFFFAOYSA-N

>  <name>  (356) 
C97238-P252

>  <HIPPO Pose ID>  (356) 
268340

>  <Energy>  (356) 
-1.304092

>  <exports>  (356) 
['/opt/xchem-fragalysis-2/maxwin/BulkDock/OUTPUTS/openbind_a71ev2a_c1_knitwork_pure_165VWF8.sdf', '/opt/xchem-fragalysis-2/maxwin/BulkDock/OUTPUTS/openbind_a71ev2a_c1_knitwork_pure_1B07PTU.sdf', '/opt/xchem-fragalysis-2/maxwin/BulkDock/OUTPUTS/openbind_a71ev2a_c1_knitwork_pure_1B07UWE.sdf', '/opt/xchem-fragalysis-2/maxwin/openbind-hippo/a71ev2a/openbind_a71ev2a_c1_scaffold_products.sdf', '/opt/xchem-fragalysis-2/maxwin/openbind-hippo/a71ev2a/cycle_01/bulkdock/openbind_a71ev2a_c1_scaffold_products.sdf', '/opt/xchem-fragalysis-2/maxwin/openbind-hippo/a71ev2a/cycle_01/bulkdock/openbind_a71ev2a_c1_scaffolds.sdf']

>  <fragmenstein_runtime>  (356) 
1.145393

$$$$
C79798-P234
     RDKit          3D

 14 15  0  0  0  0  0  0  0  0999 V2000
    8.3273   14.9493   24.8872 C   0  0  0  0  0  0  0  0  0  0  0  0
    9.3857   13.9201   24.4760 C   0  0  1  0  0  0  0  0  0  0  0  0
    8.8425   12.5273   24.4713 C   0  0  0  0  0  0  0  0  0  0  0  0
    9.2369   11.3094   23.9601 C   0  0  0  0  0  0  0  0  0  0  0  0
    8.4013   10.3120   24.3974 N   0  0  0  0  0  0  0  0  0  0  0  0
    7.5168   10.9498   25.1249 C   0  0  0  0  0  0  0  0  0  0  0  0
    7.7248   12.2856   25.2352 O   0  0  0  0  0  0  0  0  0  0  0  0
   10.0786   14.2878   23.2394 N   0  0  0  0  0  0  0  0  0  0  0  0
    9.7326   13.8531   21.9117 C   0  0  0  0  0  0  0  0  0  0  0  0
   10.8409   14.4275   21.0384 C   0  0  0  0  0  0  0  0  0  0  0  0
   11.1401   15.7453   21.7095 C   0  0  1  0  0  0  0  0  0  0  0  0
    9.7726   16.9991   21.1201 Br  0  0  0  0  0  0  0  0  0  0  0  0
   10.9299   15.3867   23.1707 C   0  0  0  0  0  0  0  0  0  0  0  0
   11.4282   15.9166   24.1522 O   0  0  0  0  0  0  0  0  0  0  0  0
  2  1  1  6
  2  3  1  0
  3  4  2  0
  4  5  1  0
  5  6  2  0
  6  7  1  0
  2  8  1  0
  8  9  1  0
  9 10  1  0
 10 11  1  0
 11 12  1  6
 11 13  1  0
 13 14  2  0
  7  3  1  0
 13  8  1  0
M  END
>  <ref_pdb>  (357) 
A3895a

>  <subsites>  (357) 
1 - Active Site

>  <HIPPO Compound ID>  (357) 
46913

>  <energy_score>  (357) 
-24.587773

>  <fragmenstein_mode>  (357) 
expansion

>  <scratch_subdir>  (357) 
/opt/xchem-fragalysis-2/maxwin/BulkDock/SCRATCH/512176/C79798-P234

>  <smiles>  (357) 
C[C@@H](c1cnco1)N1CC[C@@H](Br)C1=O

>  <alias>  (357) 
C79798-P234

>  <ref_mols>  (357) 
A3623a,A3895a

>  <inspiration_score>  (357) 
None

>  <tags>  (357) 
BulkDock Fragalysis export,fragmenstein_placed,openbind_a71ev2a_c1_scaffolds,openbind_a71ev2a_c1_knitwork_pure

>  <fragmenstein_outcome>  (357) 
acceptable

>  <fragmenstein_error>  (357) 


>  <distance_score>  (357) 
0.926329

>  <inchikey>  (357) 
UDUDCRVNWVAVQA-UHFFFAOYSA-N

>  <name>  (357) 
C79798-P234

>  <HIPPO Pose ID>  (357) 
268723

>  <Energy>  (357) 
13.661426

>  <exports>  (357) 
['/opt/xchem-fragalysis-2/maxwin/BulkDock/OUTPUTS/openbind_a71ev2a_c1_knitwork_pure_165VWF8.sdf', '/opt/xchem-fragalysis-2/maxwin/BulkDock/OUTPUTS/openbind_a71ev2a_c1_knitwork_pure_1B07PTU.sdf', '/opt/xchem-fragalysis-2/maxwin/BulkDock/OUTPUTS/openbind_a71ev2a_c1_knitwork_pure_1B07UWE.sdf', '/opt/xchem-fragalysis-2/maxwin/openbind-hippo/a71ev2a/openbind_a71ev2a_c1_scaffold_products.sdf', '/opt/xchem-fragalysis-2/maxwin/openbind-hippo/a71ev2a/cycle_01/bulkdock/openbind_a71ev2a_c1_scaffold_products.sdf', '/opt/xchem-fragalysis-2/maxwin/openbind-hippo/a71ev2a/cycle_01/bulkdock/openbind_a71ev2a_c1_scaffolds.sdf']

>  <fragmenstein_runtime>  (357) 
1.210052

$$$$
C79880-P200
     RDKit          3D

 14 15  0  0  0  0  0  0  0  0999 V2000
    7.9218   14.7503   24.8361 C   0  0  0  0  0  0  0  0  0  0  0  0
    8.4125   13.9293   23.6487 C   0  0  2  0  0  0  0  0  0  0  0  0
    8.6825   12.5026   24.0146 C   0  0  0  0  0  0  0  0  0  0  0  0
    9.4650   11.6235   23.4156 N   0  0  0  0  0  0  0  0  0  0  0  0
    9.1898   10.4449   24.0579 C   0  0  0  0  0  0  0  0  0  0  0  0
    8.2458   10.6589   25.0282 C   0  0  0  0  0  0  0  0  0  0  0  0
    7.9115   11.9711   25.0148 O   0  0  0  0  0  0  0  0  0  0  0  0
    9.5497   14.4840   22.9048 N   0  0  0  0  0  0  0  0  0  0  0  0
    9.4893   14.6090   21.4715 C   0  0  0  0  0  0  0  0  0  0  0  0
   10.9365   14.5285   21.0278 C   0  0  1  0  0  0  0  0  0  0  0  0
   11.1361   15.1696   19.7863 O   0  0  0  0  0  0  0  0  0  0  0  0
   11.6873   15.1597   22.1787 C   0  0  0  0  0  0  0  0  0  0  0  0
   10.8375   14.7444   23.3613 C   0  0  0  0  0  0  0  0  0  0  0  0
   11.2304   14.7138   24.5193 O   0  0  0  0  0  0  0  0  0  0  0  0
  2  1  1  1
  2  3  1  0
  3  4  2  0
  4  5  1  0
  5  6  2  0
  6  7  1  0
  2  8  1  0
  8  9  1  0
  9 10  1  0
 10 11  1  6
 10 12  1  0
 12 13  1  0
 13 14  2  0
  7  3  1  0
 13  8  1  0
M  END
>  <ref_pdb>  (358) 
A3623a

>  <subsites>  (358) 
1 - Active Site

>  <HIPPO Compound ID>  (358) 
50199

>  <energy_score>  (358) 
-27.326482

>  <fragmenstein_mode>  (358) 
expansion

>  <scratch_subdir>  (358) 
/opt/xchem-fragalysis-2/maxwin/BulkDock/SCRATCH/512176/C79880-P200

>  <smiles>  (358) 
C[C@H](c1ncco1)N1C[C@@H](O)CC1=O

>  <alias>  (358) 
C79880-P200

>  <ref_mols>  (358) 
A3623a,A3895a

>  <inspiration_score>  (358) 
None

>  <tags>  (358) 
BulkDock Fragalysis export,fragmenstein_placed,openbind_a71ev2a_c1_scaffolds,openbind_a71ev2a_c1_knitwork_pure

>  <fragmenstein_outcome>  (358) 
acceptable

>  <fragmenstein_error>  (358) 


>  <distance_score>  (358) 
0.957077

>  <inchikey>  (358) 
DRFSJOZQKRDYMQ-UHFFFAOYSA-N

>  <name>  (358) 
C79880-P200

>  <HIPPO Pose ID>  (358) 
268775

>  <Energy>  (358) 
28.458818

>  <exports>  (358) 
['/opt/xchem-fragalysis-2/maxwin/BulkDock/OUTPUTS/openbind_a71ev2a_c1_knitwork_pure_165VWF8.sdf', '/opt/xchem-fragalysis-2/maxwin/BulkDock/OUTPUTS/openbind_a71ev2a_c1_knitwork_pure_1B07PTU.sdf', '/opt/xchem-fragalysis-2/maxwin/BulkDock/OUTPUTS/openbind_a71ev2a_c1_knitwork_pure_1B07UWE.sdf', '/opt/xchem-fragalysis-2/maxwin/openbind-hippo/a71ev2a/openbind_a71ev2a_c1_scaffold_products.sdf', '/opt/xchem-fragalysis-2/maxwin/openbind-hippo/a71ev2a/cycle_01/bulkdock/openbind_a71ev2a_c1_scaffold_products.sdf', '/opt/xchem-fragalysis-2/maxwin/openbind-hippo/a71ev2a/cycle_01/bulkdock/openbind_a71ev2a_c1_scaffolds.sdf']

>  <fragmenstein_runtime>  (358) 
1.853267

$$$$
C58995-P336
     RDKit          3D

 14 15  0  0  0  0  0  0  0  0999 V2000
    7.3527   15.7501   22.9216 C   0  0  0  0  0  0  0  0  0  0  0  0
    8.5184   15.4168   23.7292 N   0  0  0  0  0  0  0  0  0  0  0  0
    8.3100   14.5004   24.8360 C   0  0  0  0  0  0  0  0  0  0  0  0
    8.0779   13.0640   24.3139 C   0  0  0  0  0  0  0  0  0  0  0  0
    7.0940   12.3210   25.2249 C   0  0  0  0  0  0  0  0  0  0  0  0
    7.4661   10.8731   25.4692 C   0  0  0  0  0  0  0  0  0  0  0  0
    8.0566   10.2071   24.3388 N   0  0  0  0  0  0  0  0  0  0  0  0
    9.2132   10.8574   23.7540 C   0  0  0  0  0  0  0  0  0  0  0  0
    9.4014   12.3138   24.1493 C   0  0  0  0  0  0  0  0  0  0  0  0
    9.7341   15.4144   23.1325 C   0  0  0  0  0  0  0  0  0  0  0  0
   10.9185   15.2127   23.6766 N   0  0  0  0  0  0  0  0  0  0  0  0
   11.7793   15.2519   22.6068 C   0  0  0  0  0  0  0  0  0  0  0  0
   11.0783   15.4483   21.4461 C   0  0  0  0  0  0  0  0  0  0  0  0
    9.7661   15.5758   21.7737 O   0  0  0  0  0  0  0  0  0  0  0  0
  1  2  1  0
  2  3  1  0
  3  4  1  0
  4  5  1  0
  5  6  1  0
  6  7  1  0
  7  8  1  0
  8  9  1  0
  2 10  1  0
 10 11  2  0
 11 12  1  0
 12 13  2  0
 13 14  1  0
  9  4  1  0
 14 10  1  0
M  END
>  <ref_pdb>  (359) 
A4214a

>  <subsites>  (359) 
1 - Active Site

>  <HIPPO Compound ID>  (359) 
46715

>  <energy_score>  (359) 
-48.727187

>  <fragmenstein_mode>  (359) 
expansion

>  <scratch_subdir>  (359) 
/opt/xchem-fragalysis-2/maxwin/BulkDock/SCRATCH/512176/C58995-P336

>  <smiles>  (359) 
CN(CC1CCNCC1)c1ncco1

>  <alias>  (359) 
C58995-P336

>  <ref_mols>  (359) 
A4214a,A3623a

>  <inspiration_score>  (359) 
None

>  <tags>  (359) 
BulkDock Fragalysis export,fragmenstein_placed,openbind_a71ev2a_c1_scaffolds,openbind_a71ev2a_c1_knitwork_pure

>  <fragmenstein_outcome>  (359) 
acceptable

>  <fragmenstein_error>  (359) 


>  <distance_score>  (359) 
0.902071

>  <inchikey>  (359) 
DIRAOWPNSMQXKI-UHFFFAOYSA-N

>  <name>  (359) 
C58995-P336

>  <HIPPO Pose ID>  (359) 
270688

>  <Energy>  (359) 
-26.229745

>  <exports>  (359) 
['/opt/xchem-fragalysis-2/maxwin/BulkDock/OUTPUTS/openbind_a71ev2a_c1_knitwork_pure_165VWF8.sdf', '/opt/xchem-fragalysis-2/maxwin/BulkDock/OUTPUTS/openbind_a71ev2a_c1_knitwork_pure_1B07PTU.sdf', '/opt/xchem-fragalysis-2/maxwin/BulkDock/OUTPUTS/openbind_a71ev2a_c1_knitwork_pure_1B07UWE.sdf', '/opt/xchem-fragalysis-2/maxwin/openbind-hippo/a71ev2a/openbind_a71ev2a_c1_scaffold_products.sdf', '/opt/xchem-fragalysis-2/maxwin/openbind-hippo/a71ev2a/cycle_01/bulkdock/openbind_a71ev2a_c1_scaffold_products.sdf', '/opt/xchem-fragalysis-2/maxwin/openbind-hippo/a71ev2a/cycle_01/bulkdock/openbind_a71ev2a_c1_scaffolds.sdf']

>  <fragmenstein_runtime>  (359) 
28.54433

$$$$
C58997-P336
     RDKit          3D

 14 15  0  0  0  0  0  0  0  0999 V2000
    6.6864   15.1954   22.4718 C   0  0  0  0  0  0  0  0  0  0  0  0
    7.4632   15.4832   23.6719 N   0  0  0  0  0  0  0  0  0  0  0  0
    8.6486   14.6202   23.8864 C   0  0  2  0  0  0  0  0  0  0  0  0
    9.8358   14.9576   23.0227 C   0  0  0  0  0  0  0  0  0  0  0  0
   11.0464   15.3141   23.4182 N   0  0  0  0  0  0  0  0  0  0  0  0
   11.7547   15.3980   22.2446 C   0  0  0  0  0  0  0  0  0  0  0  0
   10.9418   15.0879   21.1830 C   0  0  0  0  0  0  0  0  0  0  0  0
    9.7040   14.8002   21.6705 O   0  0  0  0  0  0  0  0  0  0  0  0
    8.3017   13.1112   23.8884 C   0  0  0  0  0  0  0  0  0  0  0  0
    9.5299   12.1919   23.8874 C   0  0  0  0  0  0  0  0  0  0  0  0
    9.1086   10.7296   23.9533 C   0  0  0  0  0  0  0  0  0  0  0  0
    8.2853   10.4499   25.1229 N   0  0  0  0  0  0  0  0  0  0  0  0
    7.1346   11.3203   25.2568 C   0  0  0  0  0  0  0  0  0  0  0  0
    7.4279   12.7985   25.1144 C   0  0  0  0  0  0  0  0  0  0  0  0
  1  2  1  0
  3  2  1  6
  3  4  1  0
  4  5  2  0
  5  6  1  0
  6  7  2  0
  7  8  1  0
  3  9  1  0
  9 10  1  0
 10 11  1  0
 11 12  1  0
 12 13  1  0
 13 14  1  0
  8  4  1  0
 14  9  1  0
M  END
>  <ref_pdb>  (360) 
A4214a

>  <subsites>  (360) 
1 - Active Site

>  <HIPPO Compound ID>  (360) 
48752

>  <energy_score>  (360) 
-34.591991

>  <fragmenstein_mode>  (360) 
expansion

>  <scratch_subdir>  (360) 
/opt/xchem-fragalysis-2/maxwin/BulkDock/SCRATCH/512176/C58997-P336

>  <smiles>  (360) 
CN[C@H](c1ncco1)C1CCNCC1

>  <alias>  (360) 
C58997-P336

>  <ref_mols>  (360) 
A4214a,A3623a

>  <inspiration_score>  (360) 
None

>  <tags>  (360) 
BulkDock Fragalysis export,fragmenstein_placed,openbind_a71ev2a_c1_scaffolds,openbind_a71ev2a_c1_knitwork_pure

>  <fragmenstein_outcome>  (360) 
acceptable

>  <fragmenstein_error>  (360) 


>  <distance_score>  (360) 
0.936787

>  <inchikey>  (360) 
UKZBPLZISFOGHM-UHFFFAOYSA-N

>  <name>  (360) 
C58997-P336

>  <HIPPO Pose ID>  (360) 
270689

>  <Energy>  (360) 
35.33332

>  <exports>  (360) 
['/opt/xchem-fragalysis-2/maxwin/BulkDock/OUTPUTS/openbind_a71ev2a_c1_knitwork_pure_165VWF8.sdf', '/opt/xchem-fragalysis-2/maxwin/BulkDock/OUTPUTS/openbind_a71ev2a_c1_knitwork_pure_1B07PTU.sdf', '/opt/xchem-fragalysis-2/maxwin/BulkDock/OUTPUTS/openbind_a71ev2a_c1_knitwork_pure_1B07UWE.sdf', '/opt/xchem-fragalysis-2/maxwin/openbind-hippo/a71ev2a/openbind_a71ev2a_c1_scaffold_products.sdf', '/opt/xchem-fragalysis-2/maxwin/openbind-hippo/a71ev2a/cycle_01/bulkdock/openbind_a71ev2a_c1_scaffold_products.sdf', '/opt/xchem-fragalysis-2/maxwin/openbind-hippo/a71ev2a/cycle_01/bulkdock/openbind_a71ev2a_c1_scaffolds.sdf']

>  <fragmenstein_runtime>  (360) 
46.109043

$$$$
C109281-P200
     RDKit          3D

 23 25  0  0  0  0  0  0  0  0999 V2000
    5.5079   16.2579   23.3052 C   0  0  0  0  0  0  0  0  0  0  0  0
    5.8896   15.2038   22.3860 N   0  0  0  0  0  0  0  0  0  0  0  0
    7.1841   14.6387   22.7717 C   0  0  0  0  0  0  0  0  0  0  0  0
    7.4908   14.6963   24.2813 C   0  0  0  0  0  0  0  0  0  0  0  0
    8.8899   14.1996   24.5959 C   0  0  0  0  0  0  0  0  0  0  0  0
    8.8742   12.7164   24.5887 C   0  0  0  0  0  0  0  0  0  0  0  0
    9.6067   12.0035   23.6503 C   0  0  0  0  0  0  0  0  0  0  0  0
    9.4882   10.6320   23.6669 C   0  0  0  0  0  0  0  0  0  0  0  0
    8.6487   10.0594   24.6057 C   0  0  0  0  0  0  0  0  0  0  0  0
    7.9237   10.8381   25.4768 C   0  0  0  0  0  0  0  0  0  0  0  0
    8.0472   12.1599   25.5090 N   0  0  0  0  0  0  0  0  0  0  0  0
    4.8156   14.2286   22.2839 C   0  0  0  0  0  0  0  0  0  0  0  0
    3.8212   14.4944   21.1965 C   0  0  0  0  0  0  0  0  0  0  0  0
    2.8181   15.3518   21.0744 N   0  0  0  0  0  0  0  0  0  0  0  0
    2.0300   14.8137   20.0832 C   0  0  0  0  0  0  0  0  0  0  0  0
    2.5994   13.6478   19.6637 C   0  0  0  0  0  0  0  0  0  0  0  0
    2.0656   12.4176   19.0758 C   0  0  0  0  0  0  0  0  0  0  0  0
    1.6663   11.5330   20.2717 C   0  0  0  0  0  0  0  0  0  0  0  0
    2.8768   10.9337   20.9956 C   0  0  0  0  0  0  0  0  0  0  0  0
    3.9629   10.5891   20.1342 O   0  0  0  0  0  0  0  0  0  0  0  0
    3.5035   10.3866   18.8144 C   0  0  0  0  0  0  0  0  0  0  0  0
    3.0805   11.7118   18.1901 C   0  0  0  0  0  0  0  0  0  0  0  0
    3.8137   13.5269   20.2436 O   0  0  0  0  0  0  0  0  0  0  0  0
  1  2  1  0
  2  3  1  0
  3  4  1  0
  4  5  1  0
  5  6  1  0
  6  7  2  0
  7  8  1  0
  8  9  2  0
  9 10  1  0
 10 11  2  0
  2 12  1  0
 12 13  1  0
 13 14  2  0
 14 15  1  0
 15 16  2  0
 16 17  1  0
 17 18  1  0
 18 19  1  0
 19 20  1  0
 20 21  1  0
 21 22  1  0
 16 23  1  0
 11  6  1  0
 23 13  1  0
 22 17  1  0
M  END
>  <ref_pdb>  (361) 
A3623a

>  <subsites>  (361) 
1 - Active Site

>  <HIPPO Compound ID>  (361) 
75046

>  <energy_score>  (361) 
-12.910885

>  <fragmenstein_mode>  (361) 
expansion

>  <scratch_subdir>  (361) 
/opt/xchem-fragalysis-2/maxwin/BulkDock/SCRATCH/512177/C109281-P200

>  <smiles>  (361) 
CN(CCCc1ccccn1)Cc1ncc(C2CCOCC2)o1

>  <alias>  (361) 
C109281-P200

>  <ref_mols>  (361) 
A3623a,A0473a

>  <inspiration_score>  (361) 
None

>  <tags>  (361) 
BulkDock Fragalysis export,fragmenstein_placed,openbind_a71ev2a_c1_scaffolds,openbind_a71ev2a_c1_knitwork_pure

>  <fragmenstein_outcome>  (361) 
acceptable

>  <fragmenstein_error>  (361) 


>  <distance_score>  (361) 
0.920804

>  <inchikey>  (361) 
SBHQGIHIWSVJJD-UHFFFAOYSA-N

>  <name>  (361) 
C109281-P200

>  <HIPPO Pose ID>  (361) 
271531

>  <Energy>  (361) 
89.915871

>  <exports>  (361) 
['/opt/xchem-fragalysis-2/maxwin/BulkDock/OUTPUTS/openbind_a71ev2a_c1_knitwork_pure_165VWF8.sdf', '/opt/xchem-fragalysis-2/maxwin/BulkDock/OUTPUTS/openbind_a71ev2a_c1_knitwork_pure_1B07PTU.sdf', '/opt/xchem-fragalysis-2/maxwin/BulkDock/OUTPUTS/openbind_a71ev2a_c1_knitwork_pure_1B07UWE.sdf', '/opt/xchem-fragalysis-2/maxwin/openbind-hippo/a71ev2a/openbind_a71ev2a_c1_scaffold_products.sdf', '/opt/xchem-fragalysis-2/maxwin/openbind-hippo/a71ev2a/cycle_01/bulkdock/openbind_a71ev2a_c1_scaffold_products.sdf', '/opt/xchem-fragalysis-2/maxwin/openbind-hippo/a71ev2a/cycle_01/bulkdock/openbind_a71ev2a_c1_scaffolds.sdf']

>  <fragmenstein_runtime>  (361) 
3.227367

$$$$
C3275-P465
     RDKit          3D

 12 13  0  0  0  0  0  0  0  0999 V2000
    9.3510   10.4932   23.8136 C   0  0  0  0  0  0  0  0  0  0  0  0
    9.5945   11.7739   23.3557 C   0  0  0  0  0  0  0  0  0  0  0  0
    8.8718   12.8044   23.9186 C   0  0  0  0  0  0  0  0  0  0  0  0
    9.0720   14.1313   23.5755 N   0  0  0  0  0  0  0  0  0  0  0  0
   10.2432   14.7798   24.1577 C   0  0  0  0  0  0  0  0  0  0  0  0
   11.4080   14.8213   23.1723 C   0  0  0  0  0  0  0  0  0  0  0  0
   10.9902   15.4819   21.8644 C   0  0  0  0  0  0  0  0  0  0  0  0
    9.7928   14.7500   21.2705 C   0  0  0  0  0  0  0  0  0  0  0  0
    8.6362   14.6135   22.2603 C   0  0  0  0  0  0  0  0  0  0  0  0
    7.9578   12.5489   24.8703 N   0  0  0  0  0  0  0  0  0  0  0  0
    7.7873   11.2706   25.2408 C   0  0  0  0  0  0  0  0  0  0  0  0
    8.4476   10.2096   24.7648 N   0  0  0  0  0  0  0  0  0  0  0  0
  1  2  2  0
  2  3  1  0
  3  4  1  0
  4  5  1  0
  5  6  1  0
  6  7  1  0
  7  8  1  0
  8  9  1  0
  3 10  2  0
 10 11  1  0
 11 12  2  0
 12  1  1  0
  9  4  1  0
M  END
>  <ref_pdb>  (362) 
A4786a

>  <subsites>  (362) 
1 - Active Site

>  <HIPPO Compound ID>  (362) 
75041

>  <energy_score>  (362) 
-11.516858

>  <fragmenstein_mode>  (362) 
expansion

>  <scratch_subdir>  (362) 
/opt/xchem-fragalysis-2/maxwin/BulkDock/SCRATCH/512177/C3275-P465

>  <smiles>  (362) 
c1cc(N2CCCCC2)ncn1

>  <alias>  (362) 
C3275-P465

>  <ref_mols>  (362) 
A4786a,A1068a

>  <inspiration_score>  (362) 
None

>  <tags>  (362) 
BulkDock Fragalysis export,fragmenstein_placed,openbind_a71ev2a_c1_scaffolds,openbind_a71ev2a_c1_knitwork_pure

>  <fragmenstein_outcome>  (362) 
acceptable

>  <fragmenstein_error>  (362) 


>  <distance_score>  (362) 
0.715474

>  <inchikey>  (362) 
CIXBAERDBPDAKY-UHFFFAOYSA-N

>  <name>  (362) 
C3275-P465

>  <HIPPO Pose ID>  (362) 
272846

>  <Energy>  (362) 
-31.962512

>  <exports>  (362) 
['/opt/xchem-fragalysis-2/maxwin/BulkDock/OUTPUTS/openbind_a71ev2a_c1_knitwork_pure_165VWF8.sdf', '/opt/xchem-fragalysis-2/maxwin/BulkDock/OUTPUTS/openbind_a71ev2a_c1_knitwork_pure_1B07PTU.sdf', '/opt/xchem-fragalysis-2/maxwin/BulkDock/OUTPUTS/openbind_a71ev2a_c1_knitwork_pure_1B07UWE.sdf', '/opt/xchem-fragalysis-2/maxwin/openbind-hippo/a71ev2a/openbind_a71ev2a_c1_scaffold_products.sdf', '/opt/xchem-fragalysis-2/maxwin/openbind-hippo/a71ev2a/cycle_01/bulkdock/openbind_a71ev2a_c1_scaffold_products.sdf', '/opt/xchem-fragalysis-2/maxwin/openbind-hippo/a71ev2a/cycle_01/bulkdock/openbind_a71ev2a_c1_scaffolds.sdf']

>  <fragmenstein_runtime>  (362) 
1.21695

$$$$
C55918-P109
     RDKit          3D

 21 22  0  0  0  0  0  0  0  0999 V2000
   36.2486   20.3618   18.9973 C   0  0  0  0  0  0  0  0  0  0  0  0
   35.6631   21.5437   19.7449 C   0  0  0  0  0  0  0  0  0  0  0  0
   34.2652   21.7048   19.4489 N   0  0  0  0  0  0  0  0  0  0  0  0
   33.5635   22.3700   18.2381 C   0  0  0  0  0  0  0  0  0  0  0  0
   34.0109   22.8207   17.2586 O   0  0  0  0  0  0  0  0  0  0  0  0
   32.0467   22.3539   18.4825 C   0  0  0  0  0  0  0  0  0  0  0  0
   31.4898   20.9382   18.6432 C   0  0  0  0  0  0  0  0  0  0  0  0
   29.9817   20.9693   18.8694 C   0  0  0  0  0  0  0  0  0  0  0  0
   29.6559   21.8570   19.9851 N   0  0  0  0  0  0  0  0  0  0  0  0
   28.3229   21.7523   20.4134 C   0  0  0  0  0  0  0  0  0  0  0  0
   27.6481   20.6111   20.1824 N   0  0  0  0  0  0  0  0  0  0  0  0
   26.3590   20.5469   20.5771 C   0  0  0  0  0  0  0  0  0  0  0  0
   25.6787   21.5920   21.1410 C   0  0  0  0  0  0  0  0  0  0  0  0
   24.3547   21.6142   21.4443 O   0  0  0  0  0  0  0  0  0  0  0  0
   23.4873   21.2227   20.3560 C   0  0  0  0  0  0  0  0  0  0  0  0
   23.5905   22.1645   19.1538 C   0  0  0  0  0  0  0  0  0  0  0  0
   22.0654   21.2418   20.9119 C   0  0  0  0  0  0  0  0  0  0  0  0
   26.4534   22.6928   21.3960 C   0  0  0  0  0  0  0  0  0  0  0  0
   27.7538   22.7973   21.0479 N   0  0  0  0  0  0  0  0  0  0  0  0
   30.1286   23.2343   19.8662 C   0  0  0  0  0  0  0  0  0  0  0  0
   31.6419   23.2454   19.6580 C   0  0  0  0  0  0  0  0  0  0  0  0
  1  2  1  0
  2  3  1  0
  3  4  1  0
  4  5  2  0
  4  6  1  0
  6  7  1  0
  7  8  1  0
  8  9  1  0
  9 10  1  0
 10 11  2  0
 11 12  1  0
 12 13  2  0
 13 14  1  0
 14 15  1  0
 15 16  1  0
 15 17  1  0
 13 18  1  0
 18 19  2  0
  9 20  1  0
 20 21  1  0
 21  6  1  0
 19 10  1  0
M  END
>  <ref_pdb>  (363) 
A1146a

>  <subsites>  (363) 
5 - A3181/A/202/1

>  <HIPPO Compound ID>  (363) 
32955

>  <energy_score>  (363) 
-21.168355

>  <fragmenstein_mode>  (363) 
expansion

>  <scratch_subdir>  (363) 
/opt/xchem-fragalysis-2/maxwin/BulkDock/SCRATCH/512177/C55918-P109

>  <smiles>  (363) 
CCNC(=O)C1CCN(c2ncc(OC(C)C)cn2)CC1

>  <alias>  (363) 
C55918-P109

>  <ref_mols>  (363) 
A3181b,A1146a

>  <inspiration_score>  (363) 
None

>  <tags>  (363) 
BulkDock Fragalysis export,fragmenstein_placed,openbind_a71ev2a_c1_scaffolds,openbind_a71ev2a_c1_knitwork_pure

>  <fragmenstein_outcome>  (363) 
acceptable

>  <fragmenstein_error>  (363) 


>  <distance_score>  (363) 
0.702669

>  <inchikey>  (363) 
FIQGWCSDZCNMCO-UHFFFAOYSA-N

>  <name>  (363) 
C55918-P109

>  <HIPPO Pose ID>  (363) 
273856

>  <Energy>  (363) 
-50.741149

>  <exports>  (363) 
['/opt/xchem-fragalysis-2/maxwin/BulkDock/OUTPUTS/openbind_a71ev2a_c1_knitwork_pure_165VWF8.sdf', '/opt/xchem-fragalysis-2/maxwin/BulkDock/OUTPUTS/openbind_a71ev2a_c1_knitwork_pure_1B07PTU.sdf', '/opt/xchem-fragalysis-2/maxwin/BulkDock/OUTPUTS/openbind_a71ev2a_c1_knitwork_pure_1B07UWE.sdf', '/opt/xchem-fragalysis-2/maxwin/openbind-hippo/a71ev2a/openbind_a71ev2a_c1_scaffold_products.sdf', '/opt/xchem-fragalysis-2/maxwin/openbind-hippo/a71ev2a/cycle_01/bulkdock/openbind_a71ev2a_c1_scaffold_products.sdf', '/opt/xchem-fragalysis-2/maxwin/openbind-hippo/a71ev2a/cycle_01/bulkdock/openbind_a71ev2a_c1_scaffolds.sdf']

>  <fragmenstein_runtime>  (363) 
3.152156

$$$$
C109280-P136
     RDKit          3D

 22 25  0  0  0  0  0  0  0  0999 V2000
   -2.6251   17.3154   22.9835 C   0  0  0  0  0  0  0  0  0  0  0  0
   -2.2638   16.5679   21.8766 C   0  0  0  0  0  0  0  0  0  0  0  0
   -1.1103   15.7861   21.9522 C   0  0  0  0  0  0  0  0  0  0  0  0
   -0.6970   14.9696   20.8202 C   0  0  0  0  0  0  0  0  0  0  0  0
   -1.2988   15.0466   19.5888 N   0  0  0  0  0  0  0  0  0  0  0  0
   -0.6374   14.1774   18.8491 C   0  0  0  0  0  0  0  0  0  0  0  0
   -0.9474   13.9075   17.4824 C   0  0  0  0  0  0  0  0  0  0  0  0
   -0.9610   12.7231   16.7674 C   0  0  0  0  0  0  0  0  0  0  0  0
   -1.3423   12.9320   15.4668 N   0  0  0  0  0  0  0  0  0  0  0  0
   -1.5833   14.2212   15.4346 C   0  0  0  0  0  0  0  0  0  0  0  0
   -1.3837   14.8770   16.6057 O   0  0  0  0  0  0  0  0  0  0  0  0
    0.3486   13.6123   19.6174 N   0  0  0  0  0  0  0  0  0  0  0  0
    1.3955   12.6788   19.2438 C   0  0  0  0  0  0  0  0  0  0  0  0
    2.6347   13.3839   18.6886 C   0  0  0  0  0  0  0  0  0  0  0  0
    3.6809   12.3487   18.3020 C   0  0  0  0  0  0  0  0  0  0  0  0
    3.9858   11.4669   19.3862 O   0  0  0  0  0  0  0  0  0  0  0  0
    2.8379   10.7720   19.8529 C   0  0  0  0  0  0  0  0  0  0  0  0
    1.8145   11.7489   20.3867 C   0  0  0  0  0  0  0  0  0  0  0  0
    0.2789   14.0568   20.8849 N   0  0  0  0  0  0  0  0  0  0  0  0
   -0.3615   15.8027   23.1329 C   0  0  0  0  0  0  0  0  0  0  0  0
   -0.8034   16.5851   24.1847 C   0  0  0  0  0  0  0  0  0  0  0  0
   -1.9254   17.3338   24.1384 N   0  0  0  0  0  0  0  0  0  0  0  0
  1  2  2  0
  2  3  1  0
  3  4  1  0
  4  5  1  0
  5  6  2  0
  6  7  1  0
  7  8  2  0
  8  9  1  0
  9 10  2  0
 10 11  1  0
  6 12  1  0
 12 13  1  0
 13 14  1  0
 14 15  1  0
 15 16  1  0
 16 17  1  0
 17 18  1  0
 12 19  1  0
  3 20  2  0
 20 21  1  0
 21 22  2  0
 22  1  1  0
 19  4  2  0
 11  7  1  0
 18 13  1  0
M  END
>  <ref_pdb>  (364) 
A2846a

>  <subsites>  (364) 
1 - Active Site

>  <HIPPO Compound ID>  (364) 
74534

>  <energy_score>  (364) 
-41.151242

>  <fragmenstein_mode>  (364) 
expansion

>  <scratch_subdir>  (364) 
/opt/xchem-fragalysis-2/maxwin/BulkDock/SCRATCH/512177/C109280-P136

>  <smiles>  (364) 
c1cc(-c2nc(-c3cnco3)n(C3CCOCC3)n2)ccn1

>  <alias>  (364) 
C109280-P136

>  <ref_mols>  (364) 
A2846a,A0473a

>  <inspiration_score>  (364) 
None

>  <tags>  (364) 
BulkDock Fragalysis export,fragmenstein_placed,openbind_a71ev2a_c1_scaffolds,openbind_a71ev2a_c1_knitwork_pure

>  <fragmenstein_outcome>  (364) 
acceptable

>  <fragmenstein_error>  (364) 


>  <distance_score>  (364) 
0.679801

>  <inchikey>  (364) 
RVXODQUPALHEDR-UHFFFAOYSA-N

>  <name>  (364) 
C109280-P136

>  <HIPPO Pose ID>  (364) 
275514

>  <Energy>  (364) 
25.571823

>  <exports>  (364) 
['/opt/xchem-fragalysis-2/maxwin/BulkDock/OUTPUTS/openbind_a71ev2a_c1_knitwork_pure_165VWF8.sdf', '/opt/xchem-fragalysis-2/maxwin/BulkDock/OUTPUTS/openbind_a71ev2a_c1_knitwork_pure_1B07PTU.sdf', '/opt/xchem-fragalysis-2/maxwin/BulkDock/OUTPUTS/openbind_a71ev2a_c1_knitwork_pure_1B07UWE.sdf', '/opt/xchem-fragalysis-2/maxwin/openbind-hippo/a71ev2a/openbind_a71ev2a_c1_scaffold_products.sdf', '/opt/xchem-fragalysis-2/maxwin/openbind-hippo/a71ev2a/cycle_01/bulkdock/openbind_a71ev2a_c1_scaffold_products.sdf', '/opt/xchem-fragalysis-2/maxwin/openbind-hippo/a71ev2a/cycle_01/bulkdock/openbind_a71ev2a_c1_scaffolds.sdf']

>  <fragmenstein_runtime>  (364) 
16.572917

$$$$
C45658-P197
     RDKit          3D

 16 18  0  0  0  0  0  0  0  0999 V2000
    7.6244   14.4880   23.4714 C   0  0  0  0  0  0  0  0  0  0  0  0
    7.0705   13.5940   24.2971 N   0  0  0  0  0  0  0  0  0  0  0  0
    8.1239   12.9864   24.8649 N   0  0  0  0  0  0  0  0  0  0  0  0
    8.1076   11.5826   25.1902 C   0  0  0  0  0  0  0  0  0  0  0  0
    6.8198   10.9782   25.6952 C   0  0  0  0  0  0  0  0  0  0  0  0
    6.9302    9.5091   25.3266 C   0  0  0  0  0  0  0  0  0  0  0  0
    8.1162    9.3363   24.3844 C   0  0  0  0  0  0  0  0  0  0  0  0
    8.5781   10.7257   24.0331 C   0  0  0  0  0  0  0  0  0  0  0  0
    9.2970   13.6396   24.6219 C   0  0  0  0  0  0  0  0  0  0  0  0
    9.0312   14.4464   23.5357 C   0  0  0  0  0  0  0  0  0  0  0  0
   10.0540   14.8920   22.5583 C   0  0  2  0  0  0  0  0  0  0  0  0
   11.3415   15.4023   23.2102 C   0  0  0  0  0  0  0  0  0  0  0  0
   12.3932   15.4530   22.1205 C   0  0  0  0  0  0  0  0  0  0  0  0
   11.9344   16.3294   20.9662 C   0  0  0  0  0  0  0  0  0  0  0  0
   10.6366   15.9328   20.4293 N   0  0  0  0  0  0  0  0  0  0  0  0
    9.6011   15.8606   21.4624 C   0  0  0  0  0  0  0  0  0  0  0  0
  1  2  2  0
  2  3  1  0
  3  4  1  0
  4  5  1  0
  5  6  1  0
  6  7  1  0
  7  8  1  0
  3  9  1  0
  9 10  2  0
 11 10  1  1
 11 12  1  0
 12 13  1  0
 13 14  1  0
 14 15  1  0
 15 16  1  0
 10  1  1  0
 16 11  1  0
  8  4  1  0
M  END
>  <ref_pdb>  (365) 
A3616b

>  <subsites>  (365) 
1 - Active Site

>  <HIPPO Compound ID>  (365) 
22252

>  <energy_score>  (365) 
-21.634311

>  <fragmenstein_mode>  (365) 
expansion

>  <scratch_subdir>  (365) 
/opt/xchem-fragalysis-2/maxwin/BulkDock/SCRATCH/512177/C45658-P197

>  <smiles>  (365) 
c1nn(C2CCCC2)cc1[C@@H]1CCCNC1

>  <alias>  (365) 
C45658-P197

>  <ref_mols>  (365) 
A0556a,A3616b

>  <inspiration_score>  (365) 
None

>  <tags>  (365) 
BulkDock Fragalysis export,fragmenstein_placed,openbind_a71ev2a_c1_scaffolds,openbind_a71ev2a_c1_knitwork_pure

>  <fragmenstein_outcome>  (365) 
acceptable

>  <fragmenstein_error>  (365) 


>  <distance_score>  (365) 
0.852886

>  <inchikey>  (365) 
IBDCOPOSACUADV-UHFFFAOYSA-N

>  <name>  (365) 
C45658-P197

>  <HIPPO Pose ID>  (365) 
278359

>  <Energy>  (365) 
47.894982

>  <exports>  (365) 
['/opt/xchem-fragalysis-2/maxwin/BulkDock/OUTPUTS/openbind_a71ev2a_c1_knitwork_pure_165VWF8.sdf', '/opt/xchem-fragalysis-2/maxwin/BulkDock/OUTPUTS/openbind_a71ev2a_c1_knitwork_pure_1B07PTU.sdf', '/opt/xchem-fragalysis-2/maxwin/BulkDock/OUTPUTS/openbind_a71ev2a_c1_knitwork_pure_1B07UWE.sdf', '/opt/xchem-fragalysis-2/maxwin/openbind-hippo/a71ev2a/openbind_a71ev2a_c1_scaffold_products.sdf', '/opt/xchem-fragalysis-2/maxwin/openbind-hippo/a71ev2a/cycle_01/bulkdock/openbind_a71ev2a_c1_scaffold_products.sdf', '/opt/xchem-fragalysis-2/maxwin/openbind-hippo/a71ev2a/cycle_01/bulkdock/openbind_a71ev2a_c1_scaffolds.sdf']

>  <fragmenstein_runtime>  (365) 
146.797213

$$$$
C64747-P344
     RDKit          3D

 21 24  0  0  0  0  0  0  0  0999 V2000
   11.4148   15.5037   19.6493 C   0  0  0  0  0  0  0  0  0  0  0  0
   10.0381   15.3189   19.6906 C   0  0  0  0  0  0  0  0  0  0  0  0
    9.4017   15.0050   20.8928 C   0  0  0  0  0  0  0  0  0  0  0  0
   10.1573   14.8971   22.0429 C   0  0  0  0  0  0  0  0  0  0  0  0
   11.5225   15.1507   22.0105 C   0  0  0  0  0  0  0  0  0  0  0  0
   12.1613   15.4573   20.8263 C   0  0  0  0  0  0  0  0  0  0  0  0
   12.0950   14.8913   23.3520 C   0  0  0  0  0  0  0  0  0  0  0  0
   10.8164   14.8633   24.1943 C   0  0  0  0  0  0  0  0  0  0  0  0
    9.6867   14.4614   23.3231 N   0  0  0  0  0  0  0  0  0  0  0  0
    9.4198   13.0149   23.2431 C   0  0  0  0  0  0  0  0  0  0  0  0
    8.5731   12.5127   24.3784 C   0  0  0  0  0  0  0  0  0  0  0  0
    8.3706   11.1467   24.5736 C   0  0  0  0  0  0  0  0  0  0  0  0
    7.5079   10.7135   25.5844 C   0  0  0  0  0  0  0  0  0  0  0  0
    6.8800   11.6419   26.4134 C   0  0  0  0  0  0  0  0  0  0  0  0
    6.0925   11.2744   27.4789 N   0  0  0  0  0  0  0  0  0  0  0  0
    5.4269   12.3235   28.2458 C   0  0  0  0  0  0  0  0  0  0  0  0
    4.5826   11.5330   29.2393 C   0  0  0  0  0  0  0  0  0  0  0  0
    4.1302   10.3449   28.4068 C   0  0  0  0  0  0  0  0  0  0  0  0
    5.3515   10.0217   27.5421 C   0  0  0  0  0  0  0  0  0  0  0  0
    7.0974   12.9598   26.2390 N   0  0  0  0  0  0  0  0  0  0  0  0
    7.8818   13.3670   25.2181 C   0  0  0  0  0  0  0  0  0  0  0  0
  1  2  2  0
  2  3  1  0
  3  4  2  0
  4  5  1  0
  5  6  2  0
  5  7  1  0
  7  8  1  0
  8  9  1  0
  9 10  1  0
 10 11  1  0
 11 12  2  0
 12 13  1  0
 13 14  2  0
 14 15  1  0
 15 16  1  0
 16 17  1  0
 17 18  1  0
 18 19  1  0
 14 20  1  0
 20 21  2  0
  6  1  1  0
 21 11  1  0
  9  4  1  0
 19 15  1  0
M  END
>  <ref_pdb>  (366) 
A4274b

>  <subsites>  (366) 
1 - Active Site

>  <HIPPO Compound ID>  (366) 
51172

>  <energy_score>  (366) 
-25.077251

>  <fragmenstein_mode>  (366) 
expansion

>  <scratch_subdir>  (366) 
/opt/xchem-fragalysis-2/maxwin/BulkDock/SCRATCH/511241/C64747-P344

>  <smiles>  (366) 
c1ccc2c(c1)CCN2Cc1ccc(N2CCCC2)nc1

>  <alias>  (366) 
C64747-P344

>  <ref_mols>  (366) 
A4274b,A1778a

>  <inspiration_score>  (366) 
None

>  <tags>  (366) 
BulkDock Fragalysis export,fragmenstein_placed,openbind_a71ev2a_c1_scaffolds,openbind_a71ev2a_c1_knitwork_pure

>  <fragmenstein_outcome>  (366) 
acceptable

>  <fragmenstein_error>  (366) 


>  <distance_score>  (366) 
0.998001

>  <inchikey>  (366) 
GBIVHNMPUDCSBY-UHFFFAOYSA-N

>  <name>  (366) 
C64747-P344

>  <HIPPO Pose ID>  (366) 
280124

>  <Energy>  (366) 
21.155983

>  <exports>  (366) 
['/opt/xchem-fragalysis-2/maxwin/BulkDock/OUTPUTS/openbind_a71ev2a_c1_knitwork_pure_165VWF8.sdf', '/opt/xchem-fragalysis-2/maxwin/BulkDock/OUTPUTS/openbind_a71ev2a_c1_knitwork_pure_1B07PTU.sdf', '/opt/xchem-fragalysis-2/maxwin/BulkDock/OUTPUTS/openbind_a71ev2a_c1_knitwork_pure_1B07UWE.sdf', '/opt/xchem-fragalysis-2/maxwin/openbind-hippo/a71ev2a/openbind_a71ev2a_c1_scaffold_products.sdf', '/opt/xchem-fragalysis-2/maxwin/openbind-hippo/a71ev2a/cycle_01/bulkdock/openbind_a71ev2a_c1_scaffold_products.sdf', '/opt/xchem-fragalysis-2/maxwin/openbind-hippo/a71ev2a/cycle_01/bulkdock/openbind_a71ev2a_c1_scaffolds.sdf']

>  <fragmenstein_runtime>  (366) 
4.812738

$$$$
C108276-P28
     RDKit          3D

 20 22  0  0  0  0  0  0  0  0999 V2000
    5.2642   12.4775   26.9627 C   0  0  0  0  0  0  0  0  0  0  0  0
    6.2247   11.2875   27.0308 C   0  0  1  0  0  0  0  0  0  0  0  0
    5.4746   10.0344   27.1784 N   0  0  0  0  0  0  0  0  0  0  0  0
    5.1624    9.7894   28.5988 C   0  0  0  0  0  0  0  0  0  0  0  0
    4.3698    8.5062   28.8512 C   0  0  0  0  0  0  0  0  0  0  0  0
    2.9083    8.6457   28.6103 C   0  0  0  0  0  0  0  0  0  0  0  0
    2.1134    7.9359   27.6890 C   0  0  0  0  0  0  0  0  0  0  0  0
    0.8217    8.3177   27.9710 C   0  0  0  0  0  0  0  0  0  0  0  0
    0.9027    9.2551   28.9612 N   0  0  0  0  0  0  0  0  0  0  0  0
   -0.1642    9.9867   29.6133 C   0  0  0  0  0  0  0  0  0  0  0  0
   -1.5952    9.6110   29.2253 C   0  0  0  0  0  0  0  0  0  0  0  0
   -2.4116   10.7625   29.7912 C   0  0  0  0  0  0  0  0  0  0  0  0
   -1.5424   11.9995   29.5825 C   0  0  0  0  0  0  0  0  0  0  0  0
   -0.1236   11.4909   29.3236 C   0  0  0  0  0  0  0  0  0  0  0  0
    2.1699    9.4677   29.3658 N   0  0  0  0  0  0  0  0  0  0  0  0
    7.1619   11.3061   25.8692 C   0  0  0  0  0  0  0  0  0  0  0  0
    7.6419   12.3478   25.0973 C   0  0  0  0  0  0  0  0  0  0  0  0
    8.6033   11.7707   24.2574 C   0  0  0  0  0  0  0  0  0  0  0  0
    8.7321   10.4639   24.4707 N   0  0  0  0  0  0  0  0  0  0  0  0
    7.7980   10.2026   25.3853 N   0  0  0  0  0  0  0  0  0  0  0  0
  2  1  1  6
  2  3  1  0
  3  4  1  0
  4  5  1  0
  5  6  1  0
  6  7  1  0
  7  8  2  0
  8  9  1  0
  9 10  1  0
 10 11  1  0
 11 12  1  0
 12 13  1  0
 13 14  1  0
  9 15  1  0
  2 16  1  0
 16 17  2  0
 17 18  1  0
 18 19  2  0
 19 20  1  0
 15  6  2  0
 20 16  1  0
 14 10  1  0
M  END
>  <ref_pdb>  (367) 
A0556a

>  <subsites>  (367) 
1 - Active Site,3 - A0541/A/147/1

>  <HIPPO Compound ID>  (367) 
54009

>  <energy_score>  (367) 
-28.54771

>  <fragmenstein_mode>  (367) 
expansion

>  <scratch_subdir>  (367) 
/opt/xchem-fragalysis-2/maxwin/BulkDock/SCRATCH/511244/C108276-P28

>  <smiles>  (367) 
C[C@@H](NCCc1ccn(C2CCCC2)n1)c1ccn[nH]1

>  <alias>  (367) 
C108276-P28

>  <ref_mols>  (367) 
A0556a,A0717a

>  <inspiration_score>  (367) 
None

>  <tags>  (367) 
BulkDock Fragalysis export,fragmenstein_placed,openbind_a71ev2a_c1_scaffolds,openbind_a71ev2a_c1_knitwork_pure

>  <fragmenstein_outcome>  (367) 
acceptable

>  <fragmenstein_error>  (367) 


>  <distance_score>  (367) 
0.863695

>  <inchikey>  (367) 
XTXBBFCZAMJCJV-UHFFFAOYSA-N

>  <name>  (367) 
C108276-P28

>  <HIPPO Pose ID>  (367) 
281168

>  <Energy>  (367) 
27.947406

>  <exports>  (367) 
['/opt/xchem-fragalysis-2/maxwin/BulkDock/OUTPUTS/openbind_a71ev2a_c1_knitwork_pure_165VWF8.sdf', '/opt/xchem-fragalysis-2/maxwin/BulkDock/OUTPUTS/openbind_a71ev2a_c1_knitwork_pure_1B07PTU.sdf', '/opt/xchem-fragalysis-2/maxwin/BulkDock/OUTPUTS/openbind_a71ev2a_c1_knitwork_pure_1B07UWE.sdf', '/opt/xchem-fragalysis-2/maxwin/openbind-hippo/a71ev2a/openbind_a71ev2a_c1_scaffold_products.sdf', '/opt/xchem-fragalysis-2/maxwin/openbind-hippo/a71ev2a/cycle_01/bulkdock/openbind_a71ev2a_c1_scaffold_products.sdf', '/opt/xchem-fragalysis-2/maxwin/openbind-hippo/a71ev2a/cycle_01/bulkdock/openbind_a71ev2a_c1_scaffolds.sdf']

>  <fragmenstein_runtime>  (367) 
10.022336

$$$$
C104338-P12
     RDKit          3D

 30 34  0  0  0  0  0  0  0  0999 V2000
   21.5226   -3.9747   22.0518 O   0  0  0  0  0  0  0  0  0  0  0  0
   21.1071   -3.7856   20.9744 C   0  0  0  0  0  0  0  0  0  0  0  0
   21.1016   -2.4936   20.1099 N   0  0  0  0  0  0  0  0  0  0  0  0
   21.6939   -1.1895   20.3581 C   0  0  0  0  0  0  0  0  0  0  0  0
   20.8968    0.0266   19.8633 C   0  0  0  0  0  0  0  0  0  0  0  0
   19.7663    0.5529   20.7758 C   0  0  0  0  0  0  0  0  0  0  0  0
   18.7649   -0.5031   21.0227 C   0  0  0  0  0  0  0  0  0  0  0  0
   17.8399   -0.9064   20.1739 N   0  0  0  0  0  0  0  0  0  0  0  0
   17.3733   -2.1210   20.6131 N   0  0  0  0  0  0  0  0  0  0  0  0
   17.9813   -2.4031   21.7454 C   0  0  0  0  0  0  0  0  0  0  0  0
   17.9266   -3.5159   22.6254 C   0  0  0  0  0  0  0  0  0  0  0  0
   18.6382   -3.4979   23.7702 C   0  0  0  0  0  0  0  0  0  0  0  0
   19.4688   -2.3606   24.1328 C   0  0  0  0  0  0  0  0  0  0  0  0
   19.5365   -1.3143   23.2930 C   0  0  0  0  0  0  0  0  0  0  0  0
   18.8067   -1.3518   22.1046 N   0  0  0  0  0  0  0  0  0  0  0  0
   20.5478   -4.9946   20.1811 C   0  0  1  0  0  0  0  0  0  0  0  0
   19.8756   -5.9977   21.1358 C   0  0  0  0  0  0  0  0  0  0  0  0
   18.7066   -6.5918   20.3767 C   0  0  0  0  0  0  0  0  0  0  0  0
   18.0011   -7.4695   20.8526 O   0  0  0  0  0  0  0  0  0  0  0  0
   18.7089   -6.0098   19.1118 N   0  0  0  0  0  0  0  0  0  0  0  0
   18.2523   -6.7179   18.0013 C   0  0  0  0  0  0  0  0  0  0  0  0
   17.1175   -7.4280   18.0063 N   0  0  0  0  0  0  0  0  0  0  0  0
   17.0302   -7.9357   16.7705 N   0  0  0  0  0  0  0  0  0  0  0  0
   18.1074   -7.6744   15.9724 C   0  0  0  0  0  0  0  0  0  0  0  0
   18.4176   -8.0710   14.6659 C   0  0  0  0  0  0  0  0  0  0  0  0
   19.6452   -7.6525   14.1434 C   0  0  0  0  0  0  0  0  0  0  0  0
   20.5225   -6.8830   14.9021 C   0  0  0  0  0  0  0  0  0  0  0  0
   20.1884   -6.4995   16.2060 C   0  0  0  0  0  0  0  0  0  0  0  0
   18.9412   -6.8765   16.7502 C   0  0  0  0  0  0  0  0  0  0  0  0
   19.5005   -4.8033   19.1108 C   0  0  0  0  0  0  0  0  0  0  0  0
  1  2  2  0
  2  3  1  0
  3  4  1  0
  4  5  1  0
  5  6  1  0
  6  7  1  0
  7  8  2  0
  8  9  1  0
  9 10  2  0
 10 11  1  0
 11 12  2  0
 12 13  1  0
 13 14  2  0
 14 15  1  0
 16  2  1  1
 16 17  1  0
 17 18  1  0
 18 19  2  0
 18 20  1  0
 20 21  1  0
 21 22  2  0
 22 23  1  0
 23 24  1  0
 24 25  2  0
 25 26  1  0
 26 27  2  0
 27 28  1  0
 28 29  2  0
 20 30  1  0
 15  7  1  0
 30 16  1  0
 15 10  1  0
 29 21  1  0
 29 24  1  0
M  END
>  <ref_pdb>  (368) 
A0497a

>  <subsites>  (368) 
2 - A3977/A/202/1

>  <HIPPO Compound ID>  (368) 
116664

>  <energy_score>  (368) 
-14.359512

>  <fragmenstein_mode>  (368) 
expansion

>  <scratch_subdir>  (368) 
/opt/xchem-fragalysis-2/maxwin/BulkDock/SCRATCH/511244/C104338-P12

>  <smiles>  (368) 
O=C(NCCCc1nnc2ccccn12)[C@H]1CC(=O)N(c2n[nH]c3ccccc23)C1

>  <alias>  (368) 
C104338-P12

>  <ref_mols>  (368) 
A0497a,A1293a

>  <inspiration_score>  (368) 
None

>  <tags>  (368) 
BulkDock Fragalysis export,fragmenstein_placed,openbind_a71ev2a_c1_scaffolds,openbind_a71ev2a_c1_knitwork_pure

>  <fragmenstein_outcome>  (368) 
acceptable

>  <fragmenstein_error>  (368) 


>  <distance_score>  (368) 
0.777155

>  <inchikey>  (368) 
BESYEBIXTNPBCZ-UHFFFAOYSA-N

>  <name>  (368) 
C104338-P12

>  <HIPPO Pose ID>  (368) 
281699

>  <Energy>  (368) 
30.386573

>  <exports>  (368) 
['/opt/xchem-fragalysis-2/maxwin/BulkDock/OUTPUTS/openbind_a71ev2a_c1_knitwork_pure_165VWF8.sdf', '/opt/xchem-fragalysis-2/maxwin/BulkDock/OUTPUTS/openbind_a71ev2a_c1_knitwork_pure_1B07PTU.sdf', '/opt/xchem-fragalysis-2/maxwin/BulkDock/OUTPUTS/openbind_a71ev2a_c1_knitwork_pure_1B07UWE.sdf', '/opt/xchem-fragalysis-2/maxwin/openbind-hippo/a71ev2a/openbind_a71ev2a_c1_scaffold_products.sdf', '/opt/xchem-fragalysis-2/maxwin/openbind-hippo/a71ev2a/cycle_01/bulkdock/openbind_a71ev2a_c1_scaffold_products.sdf', '/opt/xchem-fragalysis-2/maxwin/openbind-hippo/a71ev2a/cycle_01/bulkdock/openbind_a71ev2a_c1_scaffolds.sdf']

>  <fragmenstein_runtime>  (368) 
3.229906

$$$$
C12359-P348
     RDKit          3D

 13 13  0  0  0  0  0  0  0  0999 V2000
    7.2149   16.0058   26.4480 C   0  0  0  0  0  0  0  0  0  0  0  0
    8.0096   15.5276   25.2466 C   0  0  0  0  0  0  0  0  0  0  0  0
    7.0976   15.1151   24.0958 C   0  0  0  0  0  0  0  0  0  0  0  0
    7.9092   13.9988   22.9570 S   0  0  0  0  0  0  0  0  0  0  0  0
    8.9449   14.7457   22.2789 O   0  0  0  0  0  0  0  0  0  0  0  0
    6.9345   13.2486   22.1995 O   0  0  0  0  0  0  0  0  0  0  0  0
    8.7253   12.8923   23.9538 N   0  0  0  0  0  0  0  0  0  0  0  0
    7.9990   11.8811   24.6750 C   0  0  0  0  0  0  0  0  0  0  0  0
    7.0492   12.2024   25.6437 C   0  0  0  0  0  0  0  0  0  0  0  0
    6.3678   11.2100   26.3413 C   0  0  0  0  0  0  0  0  0  0  0  0
    6.6834    9.9005   26.0675 C   0  0  0  0  0  0  0  0  0  0  0  0
    7.6372    9.5361   25.1880 N   0  0  0  0  0  0  0  0  0  0  0  0
    8.2684   10.5289   24.5043 C   0  0  0  0  0  0  0  0  0  0  0  0
  1  2  1  0
  2  3  1  0
  3  4  1  0
  4  5  2  0
  4  6  2  0
  4  7  1  0
  7  8  1  0
  8  9  2  0
  9 10  1  0
 10 11  2  0
 11 12  1  0
 12 13  2  0
 13  8  1  0
M  END
>  <ref_pdb>  (369) 
A4388a

>  <subsites>  (369) 
1 - Active Site

>  <HIPPO Compound ID>  (369) 
68683

>  <energy_score>  (369) 
-23.151827

>  <fragmenstein_mode>  (369) 
expansion

>  <scratch_subdir>  (369) 
/opt/xchem-fragalysis-2/maxwin/BulkDock/SCRATCH/511244/C12359-P348

>  <smiles>  (369) 
CCCS(=O)(=O)Nc1cccnc1

>  <alias>  (369) 
C12359-P348

>  <ref_mols>  (369) 
A4388a,A0719a

>  <inspiration_score>  (369) 
None

>  <tags>  (369) 
BulkDock Fragalysis export,fragmenstein_placed,openbind_a71ev2a_c1_scaffolds,openbind_a71ev2a_c1_knitwork_pure

>  <fragmenstein_outcome>  (369) 
acceptable

>  <fragmenstein_error>  (369) 


>  <distance_score>  (369) 
0.907341

>  <inchikey>  (369) 
IZLSOQIKOWDXOQ-UHFFFAOYSA-N

>  <name>  (369) 
C12359-P348

>  <HIPPO Pose ID>  (369) 
281991

>  <Energy>  (369) 
-16.48939

>  <exports>  (369) 
['/opt/xchem-fragalysis-2/maxwin/BulkDock/OUTPUTS/openbind_a71ev2a_c1_knitwork_pure_165VWF8.sdf', '/opt/xchem-fragalysis-2/maxwin/BulkDock/OUTPUTS/openbind_a71ev2a_c1_knitwork_pure_1B07PTU.sdf', '/opt/xchem-fragalysis-2/maxwin/BulkDock/OUTPUTS/openbind_a71ev2a_c1_knitwork_pure_1B07UWE.sdf', '/opt/xchem-fragalysis-2/maxwin/openbind-hippo/a71ev2a/openbind_a71ev2a_c1_scaffold_products.sdf', '/opt/xchem-fragalysis-2/maxwin/openbind-hippo/a71ev2a/cycle_01/bulkdock/openbind_a71ev2a_c1_scaffold_products.sdf', '/opt/xchem-fragalysis-2/maxwin/openbind-hippo/a71ev2a/cycle_01/bulkdock/openbind_a71ev2a_c1_scaffolds.sdf']

>  <fragmenstein_runtime>  (369) 
1.622561

$$$$
C51862-P384
     RDKit          3D

 11 11  0  0  0  0  0  0  0  0999 V2000
    8.8803   14.4396   25.4289 C   0  0  0  0  0  0  0  0  0  0  0  0
    7.9883   13.6093   24.5224 C   0  0  1  0  0  0  0  0  0  0  0  0
    8.0529   14.0694   23.0805 C   0  0  0  0  0  0  0  0  0  0  0  0
    7.4827   13.4834   22.1593 O   0  0  0  0  0  0  0  0  0  0  0  0
    8.2421   12.1261   24.6423 C   0  0  0  0  0  0  0  0  0  0  0  0
    7.3114   11.4238   25.3435 N   0  0  0  0  0  0  0  0  0  0  0  0
    7.4182   10.0827   25.3242 C   0  0  0  0  0  0  0  0  0  0  0  0
    8.4267    9.3944   24.6734 C   0  0  0  0  0  0  0  0  0  0  0  0
    9.3990   10.1184   24.0037 C   0  0  0  0  0  0  0  0  0  0  0  0
    9.3124   11.5015   23.9935 C   0  0  0  0  0  0  0  0  0  0  0  0
   10.2494   12.2409   23.3360 O   0  0  0  0  0  0  0  0  0  0  0  0
  2  1  1  1
  2  3  1  0
  3  4  2  0
  2  5  1  0
  5  6  2  0
  6  7  1  0
  7  8  2  0
  8  9  1  0
  9 10  2  0
 10 11  1  0
 10  5  1  0
M  END
>  <ref_pdb>  (370) 
A4509a

>  <subsites>  (370) 
1 - Active Site

>  <HIPPO Compound ID>  (370) 
50927

>  <energy_score>  (370) 
-20.631312

>  <fragmenstein_mode>  (370) 
expansion

>  <scratch_subdir>  (370) 
/opt/xchem-fragalysis-2/maxwin/BulkDock/SCRATCH/511244/C51862-P384

>  <smiles>  (370) 
C[C@@H](C=O)c1ncccc1O

>  <alias>  (370) 
C51862-P384

>  <ref_mols>  (370) 
A4509a,A3564a

>  <inspiration_score>  (370) 
None

>  <tags>  (370) 
BulkDock Fragalysis export,fragmenstein_placed,openbind_a71ev2a_c1_scaffolds,openbind_a71ev2a_c1_knitwork_pure

>  <fragmenstein_outcome>  (370) 
acceptable

>  <fragmenstein_error>  (370) 


>  <distance_score>  (370) 
0.920973

>  <inchikey>  (370) 
ABTJDCJBWSBSRN-UHFFFAOYSA-N

>  <name>  (370) 
C51862-P384

>  <HIPPO Pose ID>  (370) 
283064

>  <Energy>  (370) 
31.53492

>  <exports>  (370) 
['/opt/xchem-fragalysis-2/maxwin/BulkDock/OUTPUTS/openbind_a71ev2a_c1_knitwork_pure_165VWF8.sdf', '/opt/xchem-fragalysis-2/maxwin/BulkDock/OUTPUTS/openbind_a71ev2a_c1_knitwork_pure_1B07PTU.sdf', '/opt/xchem-fragalysis-2/maxwin/BulkDock/OUTPUTS/openbind_a71ev2a_c1_knitwork_pure_1B07UWE.sdf', '/opt/xchem-fragalysis-2/maxwin/openbind-hippo/a71ev2a/openbind_a71ev2a_c1_scaffold_products.sdf', '/opt/xchem-fragalysis-2/maxwin/openbind-hippo/a71ev2a/cycle_01/bulkdock/openbind_a71ev2a_c1_scaffold_products.sdf', '/opt/xchem-fragalysis-2/maxwin/openbind-hippo/a71ev2a/cycle_01/bulkdock/openbind_a71ev2a_c1_scaffolds.sdf']

>  <fragmenstein_runtime>  (370) 
0.980822

$$$$
C46321-P374
     RDKit          3D

 21 23  0  0  0  0  0  0  0  0999 V2000
   20.9878   20.1939   23.3912 C   0  0  0  0  0  0  0  0  0  0  0  0
   21.5275   20.9386   22.1825 C   0  0  0  0  0  0  0  0  0  0  0  0
   22.9447   20.4835   21.8129 C   0  0  0  0  0  0  0  0  0  0  0  0
   23.4834   21.1672   20.5947 C   0  0  0  0  0  0  0  0  0  0  0  0
   22.6769   21.3826   19.5440 N   0  0  0  0  0  0  0  0  0  0  0  0
   23.4698   21.9820   18.6454 N   0  0  0  0  0  0  0  0  0  0  0  0
   24.7665   22.1263   19.0481 C   0  0  0  0  0  0  0  0  0  0  0  0
   25.8700   22.6436   18.3695 C   0  0  0  0  0  0  0  0  0  0  0  0
   27.0680   22.7029   19.0731 C   0  0  0  0  0  0  0  0  0  0  0  0
   27.1476   22.2441   20.3936 C   0  0  0  0  0  0  0  0  0  0  0  0
   28.4102   22.4811   21.1468 C   0  0  0  0  0  0  0  0  0  0  0  0
   28.3572   22.9654   22.2056 O   0  0  0  0  0  0  0  0  0  0  0  0
   29.6260   22.1015   20.2830 N   0  0  0  0  0  0  0  0  0  0  0  0
   31.0435   22.1505   20.5795 C   0  0  1  0  0  0  0  0  0  0  0  0
   31.7929   20.9997   19.8955 C   0  0  0  0  0  0  0  0  0  0  0  0
   32.4821   21.4199   18.5947 C   0  0  0  0  0  0  0  0  0  0  0  0
   31.7325   22.5374   17.8796 C   0  0  0  0  0  0  0  0  0  0  0  0
   31.5756   23.7473   18.6859 N   0  0  0  0  0  0  0  0  0  0  0  0
   31.6260   23.5094   20.1405 C   0  0  0  0  0  0  0  0  0  0  0  0
   26.0352   21.6781   21.0437 C   0  0  0  0  0  0  0  0  0  0  0  0
   24.8131   21.6230   20.3437 C   0  0  0  0  0  0  0  0  0  0  0  0
  1  2  1  0
  2  3  1  0
  3  4  1  0
  4  5  2  0
  5  6  1  0
  6  7  1  0
  7  8  2  0
  8  9  1  0
  9 10  2  0
 10 11  1  0
 11 12  2  0
 11 13  1  0
 14 13  1  6
 14 15  1  0
 15 16  1  0
 16 17  1  0
 17 18  1  0
 18 19  1  0
 10 20  1  0
 20 21  2  0
 21  4  1  0
 21  7  1  0
 19 14  1  0
M  END
>  <ref_pdb>  (371) 
A4463a

>  <subsites>  (371) 
1 - Active Site,5 - A3181/A/202/1

>  <HIPPO Compound ID>  (371) 
47059

>  <energy_score>  (371) 
-11.173144

>  <fragmenstein_mode>  (371) 
expansion

>  <scratch_subdir>  (371) 
/opt/xchem-fragalysis-2/maxwin/BulkDock/SCRATCH/511244/C46321-P374

>  <smiles>  (371) 
CCCc1n[nH]c2ccc(C(=O)N[C@H]3CCCNC3)cc12

>  <alias>  (371) 
C46321-P374

>  <ref_mols>  (371) 
A3181b,A4463a

>  <inspiration_score>  (371) 
None

>  <tags>  (371) 
BulkDock Fragalysis export,fragmenstein_placed,openbind_a71ev2a_c1_scaffolds,openbind_a71ev2a_c1_knitwork_pure

>  <fragmenstein_outcome>  (371) 
acceptable

>  <fragmenstein_error>  (371) 


>  <distance_score>  (371) 
0.802932

>  <inchikey>  (371) 
HZAWDDKMHSREJD-UHFFFAOYSA-N

>  <name>  (371) 
C46321-P374

>  <HIPPO Pose ID>  (371) 
283286

>  <Energy>  (371) 
60.259726

>  <exports>  (371) 
['/opt/xchem-fragalysis-2/maxwin/BulkDock/OUTPUTS/openbind_a71ev2a_c1_knitwork_pure_165VWF8.sdf', '/opt/xchem-fragalysis-2/maxwin/BulkDock/OUTPUTS/openbind_a71ev2a_c1_knitwork_pure_1B07PTU.sdf', '/opt/xchem-fragalysis-2/maxwin/BulkDock/OUTPUTS/openbind_a71ev2a_c1_knitwork_pure_1B07UWE.sdf', '/opt/xchem-fragalysis-2/maxwin/openbind-hippo/a71ev2a/openbind_a71ev2a_c1_scaffold_products.sdf', '/opt/xchem-fragalysis-2/maxwin/openbind-hippo/a71ev2a/cycle_01/bulkdock/openbind_a71ev2a_c1_scaffold_products.sdf', '/opt/xchem-fragalysis-2/maxwin/openbind-hippo/a71ev2a/cycle_01/bulkdock/openbind_a71ev2a_c1_scaffolds.sdf']

>  <fragmenstein_runtime>  (371) 
3.629448

$$$$
C72578-P363
     RDKit          3D

 23 25  0  0  0  0  0  0  0  0999 V2000
   10.3857   14.5260   18.3762 C   0  0  0  0  0  0  0  0  0  0  0  0
   11.3369   15.5141   18.9397 C   0  0  0  0  0  0  0  0  0  0  0  0
   10.6219   16.1344   20.0920 C   0  0  0  0  0  0  0  0  0  0  0  0
    9.8252   17.0548   19.9708 O   0  0  0  0  0  0  0  0  0  0  0  0
   10.7916   15.5029   21.3990 C   0  0  0  0  0  0  0  0  0  0  0  0
   12.0144   15.5386   22.0603 C   0  0  0  0  0  0  0  0  0  0  0  0
   12.1213   14.9434   23.3150 C   0  0  0  0  0  0  0  0  0  0  0  0
   11.0272   14.3066   23.8928 C   0  0  0  0  0  0  0  0  0  0  0  0
    9.8104   14.2951   23.2111 C   0  0  0  0  0  0  0  0  0  0  0  0
    8.3183   13.7602   23.9608 S   0  0  0  0  0  0  0  0  0  0  0  0
    7.5964   12.9287   23.0199 O   0  0  0  0  0  0  0  0  0  0  0  0
    7.7782   14.9747   24.5283 O   0  0  0  0  0  0  0  0  0  0  0  0
    8.7742   12.7969   25.2952 N   0  0  0  0  0  0  0  0  0  0  0  0
    7.6316   12.5095   26.1173 C   0  0  0  0  0  0  0  0  0  0  0  0
    6.9900   11.2777   25.9896 C   0  0  0  0  0  0  0  0  0  0  0  0
    5.8609   10.9978   26.7671 C   0  0  0  0  0  0  0  0  0  0  0  0
    5.3642   11.9767   27.6074 C   0  0  0  0  0  0  0  0  0  0  0  0
    6.0050   13.2052   27.7210 C   0  0  0  0  0  0  0  0  0  0  0  0
    7.1391   13.4909   26.9881 C   0  0  0  0  0  0  0  0  0  0  0  0
    5.3036   14.0361   28.7373 C   0  0  0  0  0  0  0  0  0  0  0  0
    4.0028   13.2285   28.8972 C   0  0  0  0  0  0  0  0  0  0  0  0
    4.2884   11.8300   28.5162 N   0  0  0  0  0  0  0  0  0  0  0  0
    9.6797   14.8965   21.9638 C   0  0  0  0  0  0  0  0  0  0  0  0
  1  2  1  0
  2  3  1  0
  3  4  2  0
  3  5  1  0
  5  6  2  0
  6  7  1  0
  7  8  2  0
  8  9  1  0
  9 10  1  0
 10 11  2  0
 10 12  2  0
 10 13  1  0
 13 14  1  0
 14 15  2  0
 15 16  1  0
 16 17  2  0
 17 18  1  0
 18 19  2  0
 18 20  1  0
 20 21  1  0
 21 22  1  0
  9 23  2  0
 23  5  1  0
 19 14  1  0
 22 17  1  0
M  END
>  <ref_pdb>  (372) 
A4445a

>  <subsites>  (372) 
1 - Active Site

>  <HIPPO Compound ID>  (372) 
72578

>  <energy_score>  (372) 
-27.374984

>  <fragmenstein_mode>  (372) 
expansion

>  <scratch_subdir>  (372) 
/opt/xchem-fragalysis-2/maxwin/BulkDock/SCRATCH/511244/C72578-P363

>  <smiles>  (372) 
CCC(=O)c1cccc(S(=O)(=O)Nc2ccc3c(c2)CCN3)c1

>  <alias>  (372) 
C72578-P363

>  <ref_mols>  (372) 
A4445a,A1778a

>  <inspiration_score>  (372) 
None

>  <tags>  (372) 
BulkDock Fragalysis export,fragmenstein_placed,openbind_a71ev2a_c1_scaffolds,openbind_a71ev2a_c1_knitwork_pure

>  <fragmenstein_outcome>  (372) 
acceptable

>  <fragmenstein_error>  (372) 


>  <distance_score>  (372) 
0.933552

>  <inchikey>  (372) 
SXFYONIWVSYCIM-UHFFFAOYSA-N

>  <name>  (372) 
C72578-P363

>  <HIPPO Pose ID>  (372) 
284009

>  <Energy>  (372) 
28.470246

>  <exports>  (372) 
['/opt/xchem-fragalysis-2/maxwin/BulkDock/OUTPUTS/openbind_a71ev2a_c1_knitwork_pure_165VWF8.sdf', '/opt/xchem-fragalysis-2/maxwin/BulkDock/OUTPUTS/openbind_a71ev2a_c1_knitwork_pure_1B07PTU.sdf', '/opt/xchem-fragalysis-2/maxwin/BulkDock/OUTPUTS/openbind_a71ev2a_c1_knitwork_pure_1B07UWE.sdf', '/opt/xchem-fragalysis-2/maxwin/openbind-hippo/a71ev2a/openbind_a71ev2a_c1_scaffold_products.sdf', '/opt/xchem-fragalysis-2/maxwin/openbind-hippo/a71ev2a/cycle_01/bulkdock/openbind_a71ev2a_c1_scaffold_products.sdf', '/opt/xchem-fragalysis-2/maxwin/openbind-hippo/a71ev2a/cycle_01/bulkdock/openbind_a71ev2a_c1_scaffolds.sdf']

>  <fragmenstein_runtime>  (372) 
84.204452

$$$$
C79596-P103
     RDKit          3D

 22 24  0  0  0  0  0  0  0  0999 V2000
   18.6433   -2.0655   19.0786 C   0  0  0  0  0  0  0  0  0  0  0  0
   19.9520   -2.5239   19.7075 C   0  0  1  0  0  0  0  0  0  0  0  0
   20.2965   -1.7092   20.9831 C   0  0  0  0  0  0  0  0  0  0  0  0
   19.2179   -1.6691   22.0696 C   0  0  0  0  0  0  0  0  0  0  0  0
   19.6498   -0.8663   23.2733 C   0  0  0  0  0  0  0  0  0  0  0  0
   20.3873   -1.4700   24.2951 C   0  0  0  0  0  0  0  0  0  0  0  0
   20.7495   -0.7078   25.3943 C   0  0  0  0  0  0  0  0  0  0  0  0
   20.4313    0.5940   25.5445 N   0  0  0  0  0  0  0  0  0  0  0  0
   19.7275    1.1674   24.5413 C   0  0  0  0  0  0  0  0  0  0  0  0
   19.3240    0.4882   23.3996 C   0  0  0  0  0  0  0  0  0  0  0  0
   20.1532   -3.9675   19.8730 N   0  0  0  0  0  0  0  0  0  0  0  0
   19.0399   -4.7907   20.3296 C   0  0  0  0  0  0  0  0  0  0  0  0
   18.0561   -5.1867   19.2585 C   0  0  0  0  0  0  0  0  0  0  0  0
   17.1081   -4.3866   18.8250 N   0  0  0  0  0  0  0  0  0  0  0  0
   16.1681   -5.0797   18.1020 C   0  0  0  0  0  0  0  0  0  0  0  0
   14.9573   -4.5391   17.6482 C   0  0  0  0  0  0  0  0  0  0  0  0
   14.0175   -5.4136   17.1295 C   0  0  0  0  0  0  0  0  0  0  0  0
   12.8519   -4.9325   16.7043 F   0  0  0  0  0  0  0  0  0  0  0  0
   14.2527   -6.7757   17.0129 C   0  0  0  0  0  0  0  0  0  0  0  0
   15.4796   -7.3166   17.3982 C   0  0  0  0  0  0  0  0  0  0  0  0
   16.4223   -6.4461   17.9652 C   0  0  0  0  0  0  0  0  0  0  0  0
   17.9685   -6.7956   18.6567 S   0  0  0  0  0  0  0  0  0  0  0  0
  2  1  1  1
  2  3  1  0
  3  4  1  0
  4  5  1  0
  5  6  2  0
  6  7  1  0
  7  8  2  0
  8  9  1  0
  9 10  2  0
  2 11  1  0
 11 12  1  0
 12 13  1  0
 13 14  2  0
 14 15  1  0
 15 16  2  0
 16 17  1  0
 17 18  1  0
 17 19  2  0
 19 20  1  0
 20 21  2  0
 21 22  1  0
 10  5  1  0
 22 13  1  0
 21 15  1  0
M  END
>  <ref_pdb>  (373) 
A1105b

>  <subsites>  (373) 
5 - A3181/A/202/1,2 - A3977/A/202/1

>  <HIPPO Compound ID>  (373) 
50560

>  <energy_score>  (373) 
-59.053623

>  <fragmenstein_mode>  (373) 
expansion

>  <scratch_subdir>  (373) 
/opt/xchem-fragalysis-2/maxwin/BulkDock/SCRATCH/512180/C79596-P103

>  <smiles>  (373) 
C[C@@H](CCc1ccncc1)NCc1nc2cc(F)ccc2s1

>  <alias>  (373) 
C79596-P103

>  <ref_mols>  (373) 
A0514b,A1105b

>  <inspiration_score>  (373) 
None

>  <tags>  (373) 
BulkDock Fragalysis export,fragmenstein_placed,openbind_a71ev2a_c1_scaffolds,openbind_a71ev2a_c1_knitwork_pure

>  <fragmenstein_outcome>  (373) 
acceptable

>  <fragmenstein_error>  (373) 


>  <distance_score>  (373) 
0.914464

>  <inchikey>  (373) 
ZSWDRRMBFQDNKX-UHFFFAOYSA-N

>  <name>  (373) 
C79596-P103

>  <HIPPO Pose ID>  (373) 
284265

>  <Energy>  (373) 
61.263392

>  <exports>  (373) 
['/opt/xchem-fragalysis-2/maxwin/BulkDock/OUTPUTS/openbind_a71ev2a_c1_knitwork_pure_165VWF8.sdf', '/opt/xchem-fragalysis-2/maxwin/BulkDock/OUTPUTS/openbind_a71ev2a_c1_knitwork_pure_1B07PTU.sdf', '/opt/xchem-fragalysis-2/maxwin/BulkDock/OUTPUTS/openbind_a71ev2a_c1_knitwork_pure_1B07UWE.sdf', '/opt/xchem-fragalysis-2/maxwin/openbind-hippo/a71ev2a/openbind_a71ev2a_c1_scaffold_products.sdf', '/opt/xchem-fragalysis-2/maxwin/openbind-hippo/a71ev2a/cycle_01/bulkdock/openbind_a71ev2a_c1_scaffold_products.sdf', '/opt/xchem-fragalysis-2/maxwin/openbind-hippo/a71ev2a/cycle_01/bulkdock/openbind_a71ev2a_c1_scaffolds.sdf']

>  <fragmenstein_runtime>  (373) 
14.508444

$$$$
C79613-P103
     RDKit          3D

 23 25  0  0  0  0  0  0  0  0999 V2000
   19.2434   -5.4640   21.3060 C   0  0  0  0  0  0  0  0  0  0  0  0
   19.3171   -4.8123   19.9193 C   0  0  2  0  0  0  0  0  0  0  0  0
   19.5697   -3.3639   20.1311 N   0  0  0  0  0  0  0  0  0  0  0  0
   19.4462   -2.5056   18.9388 C   0  0  0  0  0  0  0  0  0  0  0  0
   20.1149   -2.9566   17.6508 C   0  0  0  0  0  0  0  0  0  0  0  0
   21.8397   -2.5173   17.4656 S   0  0  0  0  0  0  0  0  0  0  0  0
   22.6128   -3.7479   17.4216 O   0  0  0  0  0  0  0  0  0  0  0  0
   21.9802   -1.5473   16.3837 O   0  0  0  0  0  0  0  0  0  0  0  0
   22.3571   -1.6752   18.9408 C   0  0  0  0  0  0  0  0  0  0  0  0
   22.2781   -0.2873   18.9970 C   0  0  0  0  0  0  0  0  0  0  0  0
   22.7212    0.3370   20.1458 C   0  0  0  0  0  0  0  0  0  0  0  0
   23.2358   -0.3273   21.2049 N   0  0  0  0  0  0  0  0  0  0  0  0
   23.3184   -1.6741   21.1053 C   0  0  0  0  0  0  0  0  0  0  0  0
   22.9026   -2.3931   20.0000 C   0  0  0  0  0  0  0  0  0  0  0  0
   18.0654   -5.1262   19.1208 C   0  0  0  0  0  0  0  0  0  0  0  0
   17.1294   -4.2437   18.8507 N   0  0  0  0  0  0  0  0  0  0  0  0
   16.1060   -4.8209   18.1311 C   0  0  0  0  0  0  0  0  0  0  0  0
   14.9240   -4.1673   17.7478 C   0  0  0  0  0  0  0  0  0  0  0  0
   13.8907   -4.9112   17.1861 C   0  0  0  0  0  0  0  0  0  0  0  0
   14.0275   -6.2820   16.9896 C   0  0  0  0  0  0  0  0  0  0  0  0
   15.2164   -6.9425   17.3138 C   0  0  0  0  0  0  0  0  0  0  0  0
   16.2480   -6.1885   17.8910 C   0  0  0  0  0  0  0  0  0  0  0  0
   17.7977   -6.6932   18.4580 S   0  0  0  0  0  0  0  0  0  0  0  0
  2  1  1  1
  2  3  1  0
  3  4  1  0
  4  5  1  0
  5  6  1  0
  6  7  2  0
  6  8  2  0
  6  9  1  0
  9 10  2  0
 10 11  1  0
 11 12  2  0
 12 13  1  0
 13 14  2  0
  2 15  1  0
 15 16  2  0
 16 17  1  0
 17 18  2  0
 18 19  1  0
 19 20  2  0
 20 21  1  0
 21 22  2  0
 22 23  1  0
 14  9  1  0
 23 15  1  0
 22 17  1  0
M  END
>  <ref_pdb>  (374) 
A1105b

>  <subsites>  (374) 
5 - A3181/A/202/1,2 - A3977/A/202/1

>  <HIPPO Compound ID>  (374) 
69028

>  <energy_score>  (374) 
-55.662454

>  <fragmenstein_mode>  (374) 
expansion

>  <scratch_subdir>  (374) 
/opt/xchem-fragalysis-2/maxwin/BulkDock/SCRATCH/512180/C79613-P103

>  <smiles>  (374) 
C[C@H](NCCS(=O)(=O)c1ccncc1)c1nc2ccccc2s1

>  <alias>  (374) 
C79613-P103

>  <ref_mols>  (374) 
A0514b,A1105b

>  <inspiration_score>  (374) 
None

>  <tags>  (374) 
BulkDock Fragalysis export,fragmenstein_placed,openbind_a71ev2a_c1_scaffolds,openbind_a71ev2a_c1_knitwork_pure

>  <fragmenstein_outcome>  (374) 
acceptable

>  <fragmenstein_error>  (374) 


>  <distance_score>  (374) 
0.83643

>  <inchikey>  (374) 
YKKKROMSHYNZCM-UHFFFAOYSA-N

>  <name>  (374) 
C79613-P103

>  <HIPPO Pose ID>  (374) 
284277

>  <Energy>  (374) 
68.697429

>  <exports>  (374) 
['/opt/xchem-fragalysis-2/maxwin/BulkDock/OUTPUTS/openbind_a71ev2a_c1_knitwork_pure_165VWF8.sdf', '/opt/xchem-fragalysis-2/maxwin/BulkDock/OUTPUTS/openbind_a71ev2a_c1_knitwork_pure_1B07PTU.sdf', '/opt/xchem-fragalysis-2/maxwin/BulkDock/OUTPUTS/openbind_a71ev2a_c1_knitwork_pure_1B07UWE.sdf', '/opt/xchem-fragalysis-2/maxwin/openbind-hippo/a71ev2a/openbind_a71ev2a_c1_scaffold_products.sdf', '/opt/xchem-fragalysis-2/maxwin/openbind-hippo/a71ev2a/cycle_01/bulkdock/openbind_a71ev2a_c1_scaffold_products.sdf', '/opt/xchem-fragalysis-2/maxwin/openbind-hippo/a71ev2a/cycle_01/bulkdock/openbind_a71ev2a_c1_scaffolds.sdf']

>  <fragmenstein_runtime>  (374) 
12.268506

$$$$
C117674-P37
     RDKit          3D

 15 15  0  0  0  0  0  0  0  0999 V2000
    6.5257   11.0847   26.1711 C   0  0  0  0  0  0  0  0  0  0  0  0
    7.6396   11.0062   25.2610 N   0  0  0  0  0  0  0  0  0  0  0  0
    8.4519   12.0287   24.8797 C   0  0  0  0  0  0  0  0  0  0  0  0
    9.3534   11.4850   24.0019 C   0  0  0  0  0  0  0  0  0  0  0  0
   10.4009   12.1329   23.4187 N   0  0  0  0  0  0  0  0  0  0  0  0
   11.0446   13.5112   23.7461 C   0  0  0  0  0  0  0  0  0  0  0  0
   10.8233   14.2636   24.6138 O   0  0  0  0  0  0  0  0  0  0  0  0
   12.1460   13.7228   22.7134 C   0  0  0  0  0  0  0  0  0  0  0  0
   12.4099   15.1481   22.5701 C   0  0  0  0  0  0  0  0  0  0  0  0
   12.5575   16.2918   22.4567 N   0  0  0  0  0  0  0  0  0  0  0  0
    8.9884   10.1277   23.8867 C   0  0  0  0  0  0  0  0  0  0  0  0
    9.6657    9.1131   23.0448 C   0  0  0  0  0  0  0  0  0  0  0  0
   10.8187    8.7492   23.6323 F   0  0  0  0  0  0  0  0  0  0  0  0
   10.0366    9.6663   21.8598 F   0  0  0  0  0  0  0  0  0  0  0  0
    7.9743    9.8270   24.7172 N   0  0  0  0  0  0  0  0  0  0  0  0
  1  2  1  0
  2  3  1  0
  3  4  2  0
  4  5  1  0
  5  6  1  0
  6  7  2  0
  6  8  1  0
  8  9  1  0
  9 10  3  0
  4 11  1  0
 11 12  1  0
 12 13  1  0
 12 14  1  0
 11 15  2  0
 15  2  1  0
M  END
>  <ref_pdb>  (375) 
A0310a

>  <subsites>  (375) 
1 - Active Site

>  <HIPPO Compound ID>  (375) 
51887

>  <energy_score>  (375) 
-3.668578

>  <fragmenstein_mode>  (375) 
expansion

>  <scratch_subdir>  (375) 
/opt/xchem-fragalysis-2/maxwin/BulkDock/SCRATCH/512180/C117674-P37

>  <smiles>  (375) 
Cn1cc(NC(=O)CC#N)c(C(F)F)n1

>  <alias>  (375) 
C117674-P37

>  <ref_mols>  (375) 
A0556a,A0310a

>  <inspiration_score>  (375) 
None

>  <tags>  (375) 
BulkDock Fragalysis export,fragmenstein_placed,openbind_a71ev2a_c1_scaffolds,openbind_a71ev2a_c1_knitwork_pure

>  <fragmenstein_outcome>  (375) 
acceptable

>  <fragmenstein_error>  (375) 


>  <distance_score>  (375) 
0.909356

>  <inchikey>  (375) 
OCFILOCKSPCUCJ-UHFFFAOYSA-N

>  <name>  (375) 
C117674-P37

>  <HIPPO Pose ID>  (375) 
284834

>  <Energy>  (375) 
56.183215

>  <exports>  (375) 
['/opt/xchem-fragalysis-2/maxwin/BulkDock/OUTPUTS/openbind_a71ev2a_c1_knitwork_pure_165VWF8.sdf', '/opt/xchem-fragalysis-2/maxwin/BulkDock/OUTPUTS/openbind_a71ev2a_c1_knitwork_pure_1B07PTU.sdf', '/opt/xchem-fragalysis-2/maxwin/BulkDock/OUTPUTS/openbind_a71ev2a_c1_knitwork_pure_1B07UWE.sdf', '/opt/xchem-fragalysis-2/maxwin/openbind-hippo/a71ev2a/openbind_a71ev2a_c1_scaffold_products.sdf', '/opt/xchem-fragalysis-2/maxwin/openbind-hippo/a71ev2a/cycle_01/bulkdock/openbind_a71ev2a_c1_scaffold_products.sdf', '/opt/xchem-fragalysis-2/maxwin/openbind-hippo/a71ev2a/cycle_01/bulkdock/openbind_a71ev2a_c1_scaffolds.sdf']

>  <fragmenstein_runtime>  (375) 
1.679509

$$$$
C54664-P439
     RDKit          3D

 22 25  0  0  0  0  0  0  0  0999 V2000
   21.2496   28.8400   20.8051 O   0  0  0  0  0  0  0  0  0  0  0  0
   21.2111   28.1747   19.7832 C   0  0  0  0  0  0  0  0  0  0  0  0
   21.2677   26.6775   19.7180 C   0  0  0  0  0  0  0  0  0  0  0  0
   20.9118   26.3689   18.2620 C   0  0  2  0  0  0  0  0  0  0  0  0
   21.6790   25.3026   17.5994 N   0  0  0  0  0  0  0  0  0  0  0  0
   23.1192   25.5312   17.4497 C   0  0  0  0  0  0  0  0  0  0  0  0
   23.9890   24.5685   18.2545 C   0  0  0  0  0  0  0  0  0  0  0  0
   23.6773   23.0944   17.9411 C   0  0  0  0  0  0  0  0  0  0  0  0
   24.0220   22.2679   19.0998 N   0  0  0  0  0  0  0  0  0  0  0  0
   23.0702   21.9137   20.0001 N   0  0  0  0  0  0  0  0  0  0  0  0
   23.7678   21.3094   20.9645 C   0  0  0  0  0  0  0  0  0  0  0  0
   25.1550   21.2827   20.7096 C   0  0  0  0  0  0  0  0  0  0  0  0
   26.2957   20.8012   21.3763 C   0  0  0  0  0  0  0  0  0  0  0  0
   27.5500   20.9658   20.7759 C   0  0  0  0  0  0  0  0  0  0  0  0
   27.6702   21.5978   19.5393 C   0  0  0  0  0  0  0  0  0  0  0  0
   26.5471   22.0830   18.8629 C   0  0  0  0  0  0  0  0  0  0  0  0
   25.2980   21.9100   19.4761 C   0  0  0  0  0  0  0  0  0  0  0  0
   22.2323   22.9095   17.4684 C   0  0  0  0  0  0  0  0  0  0  0  0
   21.3172   23.9667   18.0774 C   0  0  0  0  0  0  0  0  0  0  0  0
   21.0346   27.7212   17.5670 C   0  0  0  0  0  0  0  0  0  0  0  0
   20.9974   27.9499   16.3687 O   0  0  0  0  0  0  0  0  0  0  0  0
   21.1504   28.6774   18.5265 N   0  0  0  0  0  0  0  0  0  0  0  0
  1  2  2  0
  2  3  1  0
  3  4  1  0
  4  5  1  6
  5  6  1  0
  6  7  1  0
  7  8  1  0
  8  9  1  0
  9 10  1  0
 10 11  2  0
 11 12  1  0
 12 13  2  0
 13 14  1  0
 14 15  2  0
 15 16  1  0
 16 17  2  0
  8 18  1  0
 18 19  1  0
  4 20  1  0
 20 21  2  0
 20 22  1  0
 22  2  1  0
 19  5  1  0
 17  9  1  0
 17 12  1  0
M  END
>  <ref_pdb>  (376) 
A4706a

>  <subsites>  (376) 
1 - Active Site,5 - A3181/A/202/1

>  <HIPPO Compound ID>  (376) 
3758

>  <energy_score>  (376) 
-38.073502

>  <fragmenstein_mode>  (376) 
expansion

>  <scratch_subdir>  (376) 
/opt/xchem-fragalysis-2/maxwin/BulkDock/SCRATCH/512180/C54664-P439

>  <smiles>  (376) 
O=C1C[C@H](N2CCC(n3ncc4ccccc43)CC2)C(=O)N1

>  <alias>  (376) 
C54664-P439

>  <ref_mols>  (376) 
A3181b,A4706a

>  <inspiration_score>  (376) 
None

>  <tags>  (376) 
BulkDock Fragalysis export,fragmenstein_placed,openbind_a71ev2a_c1_scaffolds,openbind_a71ev2a_c1_knitwork_pure

>  <fragmenstein_outcome>  (376) 
acceptable

>  <fragmenstein_error>  (376) 


>  <distance_score>  (376) 
0.522691

>  <inchikey>  (376) 
JNOYHGAZDBVHEM-UHFFFAOYSA-N

>  <name>  (376) 
C54664-P439

>  <HIPPO Pose ID>  (376) 
284928

>  <Energy>  (376) 
13.668392

>  <exports>  (376) 
['/opt/xchem-fragalysis-2/maxwin/BulkDock/OUTPUTS/openbind_a71ev2a_c1_knitwork_pure_165VWF8.sdf', '/opt/xchem-fragalysis-2/maxwin/BulkDock/OUTPUTS/openbind_a71ev2a_c1_knitwork_pure_1B07PTU.sdf', '/opt/xchem-fragalysis-2/maxwin/BulkDock/OUTPUTS/openbind_a71ev2a_c1_knitwork_pure_1B07UWE.sdf', '/opt/xchem-fragalysis-2/maxwin/openbind-hippo/a71ev2a/openbind_a71ev2a_c1_scaffold_products.sdf', '/opt/xchem-fragalysis-2/maxwin/openbind-hippo/a71ev2a/cycle_01/bulkdock/openbind_a71ev2a_c1_scaffold_products.sdf', '/opt/xchem-fragalysis-2/maxwin/openbind-hippo/a71ev2a/cycle_01/bulkdock/openbind_a71ev2a_c1_scaffolds.sdf']

>  <fragmenstein_runtime>  (376) 
1.847473

$$$$
C52382-P235
     RDKit          3D

 21 23  0  0  0  0  0  0  0  0999 V2000
    8.9345   14.2959   21.4915 O   0  0  0  0  0  0  0  0  0  0  0  0
    9.4368   14.6769   22.7900 S   0  0  0  0  0  0  0  0  0  0  0  0
    9.1258   15.9558   23.3785 O   0  0  0  0  0  0  0  0  0  0  0  0
   11.2079   14.3606   22.9372 C   0  0  0  0  0  0  0  0  0  0  0  0
   12.0309   15.6451   22.8188 C   0  0  0  0  0  0  0  0  0  0  0  0
   12.2966   16.1806   21.4051 C   0  0  0  0  0  0  0  0  0  0  0  0
   11.1539   16.0118   20.4664 C   0  0  0  0  0  0  0  0  0  0  0  0
   11.1604   16.0427   18.9520 C   0  0  0  0  0  0  0  0  0  0  0  0
   11.1961   14.7473   19.6556 C   0  0  0  0  0  0  0  0  0  0  0  0
    8.7746   13.4736   23.7316 N   0  0  0  0  0  0  0  0  0  0  0  0
    8.1484   13.7210   25.0443 C   0  0  0  0  0  0  0  0  0  0  0  0
    7.6185   12.3703   25.5711 C   0  0  0  0  0  0  0  0  0  0  0  0
    8.0437   11.1411   25.0372 C   0  0  0  0  0  0  0  0  0  0  0  0
    7.3901    9.9610   25.3768 C   0  0  0  0  0  0  0  0  0  0  0  0
    6.3547   10.0246   26.2900 C   0  0  0  0  0  0  0  0  0  0  0  0
    5.9736   11.1561   26.9064 N   0  0  0  0  0  0  0  0  0  0  0  0
    6.5967   12.2923   26.5209 C   0  0  0  0  0  0  0  0  0  0  0  0
    9.1384   14.4254   25.9896 C   0  0  0  0  0  0  0  0  0  0  0  0
    8.2664   15.1778   26.9772 C   0  0  0  0  0  0  0  0  0  0  0  0
    7.1181   15.6918   26.1191 C   0  0  0  0  0  0  0  0  0  0  0  0
    6.9721   14.7269   24.9333 C   0  0  0  0  0  0  0  0  0  0  0  0
  1  2  2  0
  2  3  2  0
  2  4  1  0
  4  5  1  0
  5  6  1  0
  6  7  1  0
  7  8  1  0
  8  9  1  0
  2 10  1  0
 10 11  1  0
 11 12  1  0
 12 13  2  0
 13 14  1  0
 14 15  2  0
 15 16  1  0
 16 17  2  0
 11 18  1  0
 18 19  1  0
 19 20  1  0
 20 21  1  0
  9  7  1  0
 21 11  1  0
 17 12  1  0
M  END
>  <ref_pdb>  (377) 
A3897a

>  <subsites>  (377) 
1 - Active Site

>  <HIPPO Compound ID>  (377) 
119126

>  <energy_score>  (377) 
-42.590699

>  <fragmenstein_mode>  (377) 
expansion

>  <scratch_subdir>  (377) 
/opt/xchem-fragalysis-2/maxwin/BulkDock/SCRATCH/512180/C52382-P235

>  <smiles>  (377) 
O=S(=O)(CCCC1CC1)NC1(c2cccnc2)CCCC1

>  <alias>  (377) 
C52382-P235

>  <ref_mols>  (377) 
A3897a,A0719a

>  <inspiration_score>  (377) 
None

>  <tags>  (377) 
BulkDock Fragalysis export,fragmenstein_placed,openbind_a71ev2a_c1_scaffolds,openbind_a71ev2a_c1_knitwork_pure

>  <fragmenstein_outcome>  (377) 
acceptable

>  <fragmenstein_error>  (377) 


>  <distance_score>  (377) 
0.977045

>  <inchikey>  (377) 
ILSBGNWDUMTPAG-UHFFFAOYSA-N

>  <name>  (377) 
C52382-P235

>  <HIPPO Pose ID>  (377) 
285803

>  <Energy>  (377) 
-10.107499

>  <exports>  (377) 
['/opt/xchem-fragalysis-2/maxwin/BulkDock/OUTPUTS/openbind_a71ev2a_c1_knitwork_pure_165VWF8.sdf', '/opt/xchem-fragalysis-2/maxwin/BulkDock/OUTPUTS/openbind_a71ev2a_c1_knitwork_pure_1B07PTU.sdf', '/opt/xchem-fragalysis-2/maxwin/BulkDock/OUTPUTS/openbind_a71ev2a_c1_knitwork_pure_1B07UWE.sdf', '/opt/xchem-fragalysis-2/maxwin/openbind-hippo/a71ev2a/openbind_a71ev2a_c1_scaffold_products.sdf', '/opt/xchem-fragalysis-2/maxwin/openbind-hippo/a71ev2a/cycle_01/bulkdock/openbind_a71ev2a_c1_scaffold_products.sdf', '/opt/xchem-fragalysis-2/maxwin/openbind-hippo/a71ev2a/cycle_01/bulkdock/openbind_a71ev2a_c1_scaffolds.sdf']

>  <fragmenstein_runtime>  (377) 
16.188576

$$$$
C59844-P404
     RDKit          3D

 22 24  0  0  0  0  0  0  0  0999 V2000
   25.5637   12.0773   -0.8787 O   0  0  0  0  0  0  0  0  0  0  0  0
   24.7186   12.5881   -0.1502 C   0  0  0  0  0  0  0  0  0  0  0  0
   23.5028   13.3347   -0.6739 C   0  0  0  0  0  0  0  0  0  0  0  0
   22.9198   14.3579    0.3042 C   0  0  0  0  0  0  0  0  0  0  0  0
   22.7837   13.7325    1.6907 C   0  0  2  0  0  0  0  0  0  0  0  0
   22.1994   14.6624    2.7472 C   0  0  0  0  0  0  0  0  0  0  0  0
   20.7914   14.9473    2.6149 N   0  0  0  0  0  0  0  0  0  0  0  0
   19.5891   13.9962    2.3960 C   0  0  0  0  0  0  0  0  0  0  0  0
   19.5600   12.8433    2.2118 O   0  0  0  0  0  0  0  0  0  0  0  0
   18.2887   14.7830    2.5459 C   0  0  0  0  0  0  0  0  0  0  0  0
   18.2012   16.0677    1.7363 C   0  0  0  0  0  0  0  0  0  0  0  0
   18.3089   17.2438    2.5728 N   0  0  0  0  0  0  0  0  0  0  0  0
   17.3855   18.2170    2.8001 C   0  0  0  0  0  0  0  0  0  0  0  0
   17.9910   19.0197    3.7394 C   0  0  0  0  0  0  0  0  0  0  0  0
   17.4241   20.3051    4.3893 C   0  0  0  0  0  0  0  0  0  0  0  0
   16.6880   21.2888    3.4472 C   0  0  0  0  0  0  0  0  0  0  0  0
   15.7022   21.5418    4.6076 C   0  0  0  0  0  0  0  0  0  0  0  0
   16.0788   20.1421    5.1373 C   0  0  0  0  0  0  0  0  0  0  0  0
   19.2186   18.5102    4.0539 N   0  0  0  0  0  0  0  0  0  0  0  0
   19.4088   17.4243    3.3212 N   0  0  0  0  0  0  0  0  0  0  0  0
   24.1699   13.2847    2.1464 C   0  0  0  0  0  0  0  0  0  0  0  0
   24.8013   12.4105    1.1952 N   0  0  0  0  0  0  0  0  0  0  0  0
  1  2  2  0
  2  3  1  0
  3  4  1  0
  4  5  1  0
  5  6  1  1
  6  7  1  0
  7  8  1  0
  8  9  2  0
  8 10  1  0
 10 11  1  0
 11 12  1  0
 12 13  1  0
 13 14  2  0
 14 15  1  0
 15 16  1  0
 16 17  1  0
 17 18  1  0
 14 19  1  0
 19 20  2  0
  5 21  1  0
 21 22  1  0
 22  2  1  0
 20 12  1  0
 18 15  1  0
M  END
>  <ref_pdb>  (378) 
A4563a

>  <subsites>  (378) 
1 - Active Site,6 - A0486/A/147/1

>  <HIPPO Compound ID>  (378) 
59009

>  <energy_score>  (378) 
-15.523951

>  <fragmenstein_mode>  (378) 
expansion

>  <scratch_subdir>  (378) 
/opt/xchem-fragalysis-2/maxwin/BulkDock/SCRATCH/512180/C59844-P404

>  <smiles>  (378) 
O=C1CC[C@H](CNC(=O)CCn2cc(C3CCC3)nn2)CN1

>  <alias>  (378) 
C59844-P404

>  <ref_mols>  (378) 
A0239a,A4563a

>  <inspiration_score>  (378) 
None

>  <tags>  (378) 
BulkDock Fragalysis export,fragmenstein_placed,openbind_a71ev2a_c1_scaffolds,openbind_a71ev2a_c1_knitwork_pure

>  <fragmenstein_outcome>  (378) 
acceptable

>  <fragmenstein_error>  (378) 


>  <distance_score>  (378) 
0.890184

>  <inchikey>  (378) 
OHLKROUFFQSMCC-UHFFFAOYSA-N

>  <name>  (378) 
C59844-P404

>  <HIPPO Pose ID>  (378) 
286897

>  <Energy>  (378) 
-27.400387

>  <exports>  (378) 
['/opt/xchem-fragalysis-2/maxwin/BulkDock/OUTPUTS/openbind_a71ev2a_c1_knitwork_pure_165VWF8.sdf', '/opt/xchem-fragalysis-2/maxwin/BulkDock/OUTPUTS/openbind_a71ev2a_c1_knitwork_pure_1B07PTU.sdf', '/opt/xchem-fragalysis-2/maxwin/BulkDock/OUTPUTS/openbind_a71ev2a_c1_knitwork_pure_1B07UWE.sdf', '/opt/xchem-fragalysis-2/maxwin/openbind-hippo/a71ev2a/openbind_a71ev2a_c1_scaffold_products.sdf', '/opt/xchem-fragalysis-2/maxwin/openbind-hippo/a71ev2a/cycle_01/bulkdock/openbind_a71ev2a_c1_scaffold_products.sdf', '/opt/xchem-fragalysis-2/maxwin/openbind-hippo/a71ev2a/cycle_01/bulkdock/openbind_a71ev2a_c1_scaffolds.sdf']

>  <fragmenstein_runtime>  (378) 
101.721587

$$$$
C59845-P404
     RDKit          3D

 22 24  0  0  0  0  0  0  0  0999 V2000
   17.9786   16.0620    2.7997 C   0  0  0  0  0  0  0  0  0  0  0  0
   18.2493   14.7958    1.9814 C   0  0  1  0  0  0  0  0  0  0  0  0
   19.5193   14.0530    2.4640 C   0  0  0  0  0  0  0  0  0  0  0  0
   19.4220   12.9734    2.9730 O   0  0  0  0  0  0  0  0  0  0  0  0
   20.6871   14.8588    2.1772 N   0  0  0  0  0  0  0  0  0  0  0  0
   22.0822   14.6546    2.5001 C   0  0  0  0  0  0  0  0  0  0  0  0
   22.7890   13.7650    1.4796 C   0  0  1  0  0  0  0  0  0  0  0  0
   22.9897   14.4489    0.1248 C   0  0  0  0  0  0  0  0  0  0  0  0
   23.6322   13.4760   -0.8600 C   0  0  0  0  0  0  0  0  0  0  0  0
   24.8260   12.7234   -0.3064 C   0  0  0  0  0  0  0  0  0  0  0  0
   25.6694   12.2073   -1.0347 O   0  0  0  0  0  0  0  0  0  0  0  0
   24.8838   12.5463    1.0439 N   0  0  0  0  0  0  0  0  0  0  0  0
   24.1622   13.3497    2.0017 C   0  0  0  0  0  0  0  0  0  0  0  0
   17.0943   13.9029    1.9301 N   0  0  0  0  0  0  0  0  0  0  0  0
   16.7797   13.0349    0.9235 C   0  0  0  0  0  0  0  0  0  0  0  0
   15.5275   12.5840    1.2610 C   0  0  0  0  0  0  0  0  0  0  0  0
   14.6971   11.5655    0.4464 C   0  0  0  0  0  0  0  0  0  0  0  0
   14.5726   11.8689   -1.0697 C   0  0  0  0  0  0  0  0  0  0  0  0
   13.1205   11.3587   -0.9753 C   0  0  0  0  0  0  0  0  0  0  0  0
   13.1597   11.7586    0.5135 C   0  0  0  0  0  0  0  0  0  0  0  0
   15.1264   13.1582    2.4344 N   0  0  0  0  0  0  0  0  0  0  0  0
   16.0916   13.9755    2.8364 N   0  0  0  0  0  0  0  0  0  0  0  0
  2  1  1  1
  2  3  1  0
  3  4  2  0
  3  5  1  0
  5  6  1  0
  7  6  1  1
  7  8  1  0
  8  9  1  0
  9 10  1  0
 10 11  2  0
 10 12  1  0
 12 13  1  0
  2 14  1  0
 14 15  1  0
 15 16  2  0
 16 17  1  0
 17 18  1  0
 18 19  1  0
 19 20  1  0
 16 21  1  0
 21 22  2  0
 13  7  1  0
 22 14  1  0
 20 17  1  0
M  END
>  <ref_pdb>  (379) 
A4563a

>  <subsites>  (379) 
1 - Active Site,6 - A0486/A/147/1

>  <HIPPO Compound ID>  (379) 
99744

>  <energy_score>  (379) 
-36.831272

>  <fragmenstein_mode>  (379) 
expansion

>  <scratch_subdir>  (379) 
/opt/xchem-fragalysis-2/maxwin/BulkDock/SCRATCH/512180/C59845-P404

>  <smiles>  (379) 
C[C@@H](C(=O)NC[C@H]1CCC(=O)NC1)n1cc(C2CCC2)nn1

>  <alias>  (379) 
C59845-P404

>  <ref_mols>  (379) 
A0239a,A4563a

>  <inspiration_score>  (379) 
None

>  <tags>  (379) 
BulkDock Fragalysis export,fragmenstein_placed,openbind_a71ev2a_c1_scaffolds,openbind_a71ev2a_c1_knitwork_pure

>  <fragmenstein_outcome>  (379) 
acceptable

>  <fragmenstein_error>  (379) 


>  <distance_score>  (379) 
0.963319

>  <inchikey>  (379) 
GYQUKRQTKVBWNS-UHFFFAOYSA-N

>  <name>  (379) 
C59845-P404

>  <HIPPO Pose ID>  (379) 
286899

>  <Energy>  (379) 
-0.798919

>  <exports>  (379) 
['/opt/xchem-fragalysis-2/maxwin/BulkDock/OUTPUTS/openbind_a71ev2a_c1_knitwork_pure_165VWF8.sdf', '/opt/xchem-fragalysis-2/maxwin/BulkDock/OUTPUTS/openbind_a71ev2a_c1_knitwork_pure_1B07PTU.sdf', '/opt/xchem-fragalysis-2/maxwin/BulkDock/OUTPUTS/openbind_a71ev2a_c1_knitwork_pure_1B07UWE.sdf', '/opt/xchem-fragalysis-2/maxwin/openbind-hippo/a71ev2a/openbind_a71ev2a_c1_scaffold_products.sdf', '/opt/xchem-fragalysis-2/maxwin/openbind-hippo/a71ev2a/cycle_01/bulkdock/openbind_a71ev2a_c1_scaffold_products.sdf', '/opt/xchem-fragalysis-2/maxwin/openbind-hippo/a71ev2a/cycle_01/bulkdock/openbind_a71ev2a_c1_scaffolds.sdf']

>  <fragmenstein_runtime>  (379) 
100.480923

$$$$
C55769-P615
     RDKit          3D

 17 19  0  0  0  0  0  0  0  0999 V2000
   -0.7611   13.0626   20.9203 C   0  0  0  0  0  0  0  0  0  0  0  0
   -0.1027   13.3859   22.0366 N   0  0  0  0  0  0  0  0  0  0  0  0
    0.8318   14.2626   21.6042 N   0  0  0  0  0  0  0  0  0  0  0  0
    1.7057   14.9462   22.5446 C   0  0  1  0  0  0  0  0  0  0  0  0
    0.9382   15.6016   23.7040 C   0  0  0  0  0  0  0  0  0  0  0  0
    1.9051   16.1997   24.7216 C   0  0  0  0  0  0  0  0  0  0  0  0
    2.9547   15.1808   25.1377 C   0  0  0  0  0  0  0  0  0  0  0  0
    3.6602   14.7229   23.9876 O   0  0  0  0  0  0  0  0  0  0  0  0
    2.7957   14.0214   23.0789 C   0  0  0  0  0  0  0  0  0  0  0  0
    0.7837   14.4755   20.2542 C   0  0  0  0  0  0  0  0  0  0  0  0
   -0.2858   13.7469   19.7754 C   0  0  0  0  0  0  0  0  0  0  0  0
   -0.8786   13.7073   18.3961 C   0  0  1  0  0  0  0  0  0  0  0  0
   -1.1249   15.1086   17.8124 C   0  0  0  0  0  0  0  0  0  0  0  0
   -1.2144   15.1087   16.2853 C   0  0  0  0  0  0  0  0  0  0  0  0
   -1.6934   13.7668   15.7481 C   0  0  0  0  0  0  0  0  0  0  0  0
   -0.8013   12.6667   16.1094 N   0  0  0  0  0  0  0  0  0  0  0  0
   -0.0980   12.8466   17.3924 C   0  0  0  0  0  0  0  0  0  0  0  0
  1  2  2  0
  2  3  1  0
  4  3  1  1
  4  5  1  0
  5  6  1  0
  6  7  1  0
  7  8  1  0
  8  9  1  0
  3 10  1  0
 10 11  2  0
 12 11  1  1
 12 13  1  0
 13 14  1  0
 14 15  1  0
 15 16  1  0
 16 17  1  0
 11  1  1  0
 17 12  1  0
  9  4  1  0
M  END
>  <ref_pdb>  (380) 
A5424a

>  <subsites>  (380) 
1 - Active Site

>  <HIPPO Compound ID>  (380) 
50959

>  <energy_score>  (380) 
-34.146919

>  <fragmenstein_mode>  (380) 
expansion

>  <scratch_subdir>  (380) 
/opt/xchem-fragalysis-2/maxwin/BulkDock/SCRATCH/512180/C55769-P615

>  <smiles>  (380) 
c1nn([C@H]2CCCOC2)cc1[C@H]1CCCNC1

>  <alias>  (380) 
C55769-P615

>  <ref_mols>  (380) 
A0473a,A5424a

>  <inspiration_score>  (380) 
None

>  <tags>  (380) 
BulkDock Fragalysis export,fragmenstein_placed,openbind_a71ev2a_c1_scaffolds,openbind_a71ev2a_c1_knitwork_pure

>  <fragmenstein_outcome>  (380) 
acceptable

>  <fragmenstein_error>  (380) 


>  <distance_score>  (380) 
0.814224

>  <inchikey>  (380) 
YMLRBUYADBIVPV-UHFFFAOYSA-N

>  <name>  (380) 
C55769-P615

>  <HIPPO Pose ID>  (380) 
288181

>  <Energy>  (380) 
40.66051

>  <exports>  (380) 
['/opt/xchem-fragalysis-2/maxwin/BulkDock/OUTPUTS/openbind_a71ev2a_c1_knitwork_pure_165VWF8.sdf', '/opt/xchem-fragalysis-2/maxwin/BulkDock/OUTPUTS/openbind_a71ev2a_c1_knitwork_pure_1B07PTU.sdf', '/opt/xchem-fragalysis-2/maxwin/BulkDock/OUTPUTS/openbind_a71ev2a_c1_knitwork_pure_1B07UWE.sdf', '/opt/xchem-fragalysis-2/maxwin/openbind-hippo/a71ev2a/openbind_a71ev2a_c1_scaffold_products.sdf', '/opt/xchem-fragalysis-2/maxwin/openbind-hippo/a71ev2a/cycle_01/bulkdock/openbind_a71ev2a_c1_scaffold_products.sdf', '/opt/xchem-fragalysis-2/maxwin/openbind-hippo/a71ev2a/cycle_01/bulkdock/openbind_a71ev2a_c1_scaffolds.sdf']

>  <fragmenstein_runtime>  (380) 
4.14564

$$$$
C45903-P257
     RDKit          3D

 21 23  0  0  0  0  0  0  0  0999 V2000
   25.5553   18.1225   25.8156 O   0  0  0  0  0  0  0  0  0  0  0  0
   24.3881   18.2905   25.0060 C   0  0  1  0  0  0  0  0  0  0  0  0
   24.7662   18.1975   23.5291 C   0  0  0  0  0  0  0  0  0  0  0  0
   25.9101   19.1099   23.1187 C   0  0  0  0  0  0  0  0  0  0  0  0
   25.9533   19.2477   21.6460 N   0  0  0  0  0  0  0  0  0  0  0  0
   26.5022   20.4992   21.2753 C   0  0  0  0  0  0  0  0  0  0  0  0
   25.8488   21.6200   21.6931 C   0  0  0  0  0  0  0  0  0  0  0  0
   26.6060   22.7400   21.6621 C   0  0  0  0  0  0  0  0  0  0  0  0
   27.8457   22.8243   21.1701 N   0  0  0  0  0  0  0  0  0  0  0  0
   28.3848   21.7053   20.6770 C   0  0  0  0  0  0  0  0  0  0  0  0
   29.7397   21.7564   20.3001 N   0  0  0  0  0  0  0  0  0  0  0  0
   30.0965   20.8715   19.2080 C   0  0  0  0  0  0  0  0  0  0  0  0
   31.5871   20.9054   18.8991 C   0  0  0  0  0  0  0  0  0  0  0  0
   32.1046   22.3269   18.7585 C   0  0  0  0  0  0  0  0  0  0  0  0
   31.8105   23.0958   20.0347 C   0  0  0  0  0  0  0  0  0  0  0  0
   30.3223   23.0979   20.3662 C   0  0  0  0  0  0  0  0  0  0  0  0
   27.7006   20.5406   20.6543 N   0  0  0  0  0  0  0  0  0  0  0  0
   23.4015   17.1755   25.3472 C   0  0  0  0  0  0  0  0  0  0  0  0
   21.9933   17.2425   24.6941 C   0  0  0  0  0  0  0  0  0  0  0  0
   21.4298   16.6828   26.0144 C   0  0  0  0  0  0  0  0  0  0  0  0
   22.6723   17.2702   26.7145 C   0  0  0  0  0  0  0  0  0  0  0  0
  2  1  1  1
  2  3  1  0
  3  4  1  0
  4  5  1  0
  5  6  1  0
  6  7  2  0
  7  8  1  0
  8  9  2  0
  9 10  1  0
 10 11  1  0
 11 12  1  0
 12 13  1  0
 13 14  1  0
 14 15  1  0
 15 16  1  0
 10 17  2  0
  2 18  1  0
 18 19  1  0
 19 20  1  0
 20 21  1  0
 17  6  1  0
 21 18  1  0
 16 11  1  0
M  END
>  <ref_pdb>  (381) 
A3986b

>  <subsites>  (381) 
1 - Active Site,5 - A3181/A/202/1

>  <HIPPO Compound ID>  (381) 
45686

>  <energy_score>  (381) 
-40.984688

>  <fragmenstein_mode>  (381) 
expansion

>  <scratch_subdir>  (381) 
/opt/xchem-fragalysis-2/maxwin/BulkDock/SCRATCH/512180/C45903-P257

>  <smiles>  (381) 
O[C@@H](CCNc1ccnc(N2CCCCC2)n1)C1CCC1

>  <alias>  (381) 
C45903-P257

>  <ref_mols>  (381) 
A3986b,A1146a

>  <inspiration_score>  (381) 
None

>  <tags>  (381) 
BulkDock Fragalysis export,fragmenstein_placed,openbind_a71ev2a_c1_scaffolds,openbind_a71ev2a_c1_knitwork_pure

>  <fragmenstein_outcome>  (381) 
acceptable

>  <fragmenstein_error>  (381) 


>  <distance_score>  (381) 
0.568273

>  <inchikey>  (381) 
OJGYGWNQLWVYCV-UHFFFAOYSA-N

>  <name>  (381) 
C45903-P257

>  <HIPPO Pose ID>  (381) 
288327

>  <Energy>  (381) 
-91.50814

>  <exports>  (381) 
['/opt/xchem-fragalysis-2/maxwin/BulkDock/OUTPUTS/openbind_a71ev2a_c1_knitwork_pure_165VWF8.sdf', '/opt/xchem-fragalysis-2/maxwin/BulkDock/OUTPUTS/openbind_a71ev2a_c1_knitwork_pure_1B07PTU.sdf', '/opt/xchem-fragalysis-2/maxwin/BulkDock/OUTPUTS/openbind_a71ev2a_c1_knitwork_pure_1B07UWE.sdf', '/opt/xchem-fragalysis-2/maxwin/openbind-hippo/a71ev2a/openbind_a71ev2a_c1_scaffold_products.sdf', '/opt/xchem-fragalysis-2/maxwin/openbind-hippo/a71ev2a/cycle_01/bulkdock/openbind_a71ev2a_c1_scaffold_products.sdf', '/opt/xchem-fragalysis-2/maxwin/openbind-hippo/a71ev2a/cycle_01/bulkdock/openbind_a71ev2a_c1_scaffolds.sdf']

>  <fragmenstein_runtime>  (381) 
167.973692

$$$$
C118482-P100
     RDKit          3D

 23 24  0  0  0  0  0  0  0  0999 V2000
    4.9279   10.2996    1.6855 C   0  0  0  0  0  0  0  0  0  0  0  0
    3.8216   11.3533    1.7805 C   0  0  2  0  0  0  0  0  0  0  0  0
    4.2011   12.6657    1.0844 C   0  0  0  0  0  0  0  0  0  0  0  0
    5.3492   13.3242    1.6498 N   0  0  0  0  0  0  0  0  0  0  0  0
    6.8604   13.1767    1.3202 C   0  0  0  0  0  0  0  0  0  0  0  0
    7.3963   12.5563    0.4885 O   0  0  0  0  0  0  0  0  0  0  0  0
    7.6302   14.0939    2.2708 C   0  0  0  0  0  0  0  0  0  0  0  0
    7.4354   13.7460    3.7009 C   0  0  0  0  0  0  0  0  0  0  0  0
    7.1080   14.6102    4.7683 C   0  0  0  0  0  0  0  0  0  0  0  0
    7.0021   13.9636    5.9301 N   0  0  0  0  0  0  0  0  0  0  0  0
    7.2747   12.6381    5.6318 O   0  0  0  0  0  0  0  0  0  0  0  0
    7.5420   12.5176    4.3102 C   0  0  0  0  0  0  0  0  0  0  0  0
    3.3990   11.5781    3.2487 C   0  0  0  0  0  0  0  0  0  0  0  0
    2.6133   10.4792    3.7698 N   0  0  0  0  0  0  0  0  0  0  0  0
    1.1002   10.1550    3.6105 C   0  0  0  0  0  0  0  0  0  0  0  0
    0.2442   10.7666    3.0994 O   0  0  0  0  0  0  0  0  0  0  0  0
    0.8560    8.7326    4.1775 C   0  0  2  0  0  0  0  0  0  0  0  0
   -0.5580    8.2488    3.8479 C   0  0  0  0  0  0  0  0  0  0  0  0
   -0.7513    7.1888    4.8111 N   0  0  0  0  0  0  0  0  0  0  0  0
   -1.9344    6.3660    4.8306 C   0  0  0  0  0  0  0  0  0  0  0  0
    0.0991    7.3657    5.8982 C   0  0  0  0  0  0  0  0  0  0  0  0
    0.1392    6.6655    6.8975 O   0  0  0  0  0  0  0  0  0  0  0  0
    0.9450    8.4447    5.6009 N   0  0  0  0  0  0  0  0  0  0  0  0
  2  1  1  1
  2  3  1  0
  3  4  1  0
  4  5  1  0
  5  6  2  0
  5  7  1  0
  7  8  1  0
  8  9  1  0
  9 10  2  0
 10 11  1  0
 11 12  1  0
  2 13  1  0
 13 14  1  0
 14 15  1  0
 15 16  2  0
 17 15  1  1
 17 18  1  0
 18 19  1  0
 19 20  1  0
 19 21  1  0
 21 22  2  0
 21 23  1  0
 12  8  2  0
 23 17  1  0
M  END
>  <ref_pdb>  (382) 
A1081b

>  <subsites>  (382) 
3 - A0541/A/147/1,17 - A1081/A/201/1

>  <HIPPO Compound ID>  (382) 
46510

>  <energy_score>  (382) 
-27.940242

>  <fragmenstein_mode>  (382) 
expansion

>  <scratch_subdir>  (382) 
/opt/xchem-fragalysis-2/maxwin/BulkDock/SCRATCH/512180/C118482-P100

>  <smiles>  (382) 
C[C@H](CNC(=O)Cc1cnoc1)CNC(=O)[C@@H]1CN(C)C(=O)N1

>  <alias>  (382) 
C118482-P100

>  <ref_mols>  (382) 
A0541a,A1081b

>  <inspiration_score>  (382) 
None

>  <tags>  (382) 
BulkDock Fragalysis export,fragmenstein_placed,openbind_a71ev2a_c1_scaffolds,openbind_a71ev2a_c1_knitwork_pure

>  <fragmenstein_outcome>  (382) 
acceptable

>  <fragmenstein_error>  (382) 


>  <distance_score>  (382) 
0.946158

>  <inchikey>  (382) 
YFUCQHARYKGGDT-UHFFFAOYSA-N

>  <name>  (382) 
C118482-P100

>  <HIPPO Pose ID>  (382) 
288673

>  <Energy>  (382) 
-12.083673

>  <exports>  (382) 
['/opt/xchem-fragalysis-2/maxwin/BulkDock/OUTPUTS/openbind_a71ev2a_c1_knitwork_pure_165VWF8.sdf', '/opt/xchem-fragalysis-2/maxwin/BulkDock/OUTPUTS/openbind_a71ev2a_c1_knitwork_pure_1B07PTU.sdf', '/opt/xchem-fragalysis-2/maxwin/BulkDock/OUTPUTS/openbind_a71ev2a_c1_knitwork_pure_1B07UWE.sdf', '/opt/xchem-fragalysis-2/maxwin/openbind-hippo/a71ev2a/openbind_a71ev2a_c1_scaffold_products.sdf', '/opt/xchem-fragalysis-2/maxwin/openbind-hippo/a71ev2a/cycle_01/bulkdock/openbind_a71ev2a_c1_scaffold_products.sdf', '/opt/xchem-fragalysis-2/maxwin/openbind-hippo/a71ev2a/cycle_01/bulkdock/openbind_a71ev2a_c1_scaffolds.sdf']

>  <fragmenstein_runtime>  (382) 
2.926565

$$$$
C118483-P100
     RDKit          3D

 23 24  0  0  0  0  0  0  0  0999 V2000
    2.6125   10.7558    0.7266 C   0  0  0  0  0  0  0  0  0  0  0  0
    3.5692   11.5271    1.6454 C   0  0  1  0  0  0  0  0  0  0  0  0
    4.0081   12.8179    0.9420 C   0  0  0  0  0  0  0  0  0  0  0  0
    5.1906   13.4016    1.5214 N   0  0  0  0  0  0  0  0  0  0  0  0
    6.6894   13.0413    1.3317 C   0  0  0  0  0  0  0  0  0  0  0  0
    7.1971   12.2681    0.6190 O   0  0  0  0  0  0  0  0  0  0  0  0
    7.5002   13.9775    2.2264 C   0  0  0  0  0  0  0  0  0  0  0  0
    7.3479   13.6690    3.6689 C   0  0  0  0  0  0  0  0  0  0  0  0
    7.0819   14.5656    4.7267 C   0  0  0  0  0  0  0  0  0  0  0  0
    7.0205   13.9513    5.9090 N   0  0  0  0  0  0  0  0  0  0  0  0
    7.2591   12.6142    5.6336 O   0  0  0  0  0  0  0  0  0  0  0  0
    7.4596   12.4545    4.3045 C   0  0  0  0  0  0  0  0  0  0  0  0
    2.8892   11.8442    2.9962 C   0  0  0  0  0  0  0  0  0  0  0  0
    2.3722   10.6759    3.6741 N   0  0  0  0  0  0  0  0  0  0  0  0
    0.9903   10.4342    4.3730 C   0  0  0  0  0  0  0  0  0  0  0  0
    0.0412   11.1187    4.4341 O   0  0  0  0  0  0  0  0  0  0  0  0
    1.0189    8.9916    4.9362 C   0  0  2  0  0  0  0  0  0  0  0  0
    0.4659    8.0608    3.8514 C   0  0  0  0  0  0  0  0  0  0  0  0
   -0.0733    6.9556    4.5981 N   0  0  0  0  0  0  0  0  0  0  0  0
   -0.1875    7.2733    5.9404 C   0  0  0  0  0  0  0  0  0  0  0  0
   -0.5206    6.4783    6.8035 O   0  0  0  0  0  0  0  0  0  0  0  0
    0.2006    8.6064    6.0858 N   0  0  0  0  0  0  0  0  0  0  0  0
    0.3515    9.2170    7.3816 C   0  0  0  0  0  0  0  0  0  0  0  0
  2  1  1  6
  2  3  1  0
  3  4  1  0
  4  5  1  0
  5  6  2  0
  5  7  1  0
  7  8  1  0
  8  9  1  0
  9 10  2  0
 10 11  1  0
 11 12  1  0
  2 13  1  0
 13 14  1  0
 14 15  1  0
 15 16  2  0
 17 15  1  6
 17 18  1  0
 18 19  1  0
 19 20  1  0
 20 21  2  0
 20 22  1  0
 22 23  1  0
 12  8  2  0
 22 17  1  0
M  END
>  <ref_pdb>  (383) 
A1081b

>  <subsites>  (383) 
3 - A0541/A/147/1,17 - A1081/A/201/1

>  <HIPPO Compound ID>  (383) 
17664

>  <energy_score>  (383) 
-16.669464

>  <fragmenstein_mode>  (383) 
expansion

>  <scratch_subdir>  (383) 
/opt/xchem-fragalysis-2/maxwin/BulkDock/SCRATCH/512180/C118483-P100

>  <smiles>  (383) 
C[C@@H](CNC(=O)Cc1cnoc1)CNC(=O)[C@@H]1CNC(=O)N1C

>  <alias>  (383) 
C118483-P100

>  <ref_mols>  (383) 
A0541a,A1081b

>  <inspiration_score>  (383) 
None

>  <tags>  (383) 
BulkDock Fragalysis export,fragmenstein_placed,openbind_a71ev2a_c1_scaffolds,openbind_a71ev2a_c1_knitwork_pure

>  <fragmenstein_outcome>  (383) 
acceptable

>  <fragmenstein_error>  (383) 


>  <distance_score>  (383) 
0.996968

>  <inchikey>  (383) 
ACSYWMFGDGOESG-UHFFFAOYSA-N

>  <name>  (383) 
C118483-P100

>  <HIPPO Pose ID>  (383) 
288675

>  <Energy>  (383) 
-8.565177

>  <exports>  (383) 
['/opt/xchem-fragalysis-2/maxwin/BulkDock/OUTPUTS/openbind_a71ev2a_c1_knitwork_pure_165VWF8.sdf', '/opt/xchem-fragalysis-2/maxwin/BulkDock/OUTPUTS/openbind_a71ev2a_c1_knitwork_pure_1B07PTU.sdf', '/opt/xchem-fragalysis-2/maxwin/BulkDock/OUTPUTS/openbind_a71ev2a_c1_knitwork_pure_1B07UWE.sdf', '/opt/xchem-fragalysis-2/maxwin/openbind-hippo/a71ev2a/openbind_a71ev2a_c1_scaffold_products.sdf', '/opt/xchem-fragalysis-2/maxwin/openbind-hippo/a71ev2a/cycle_01/bulkdock/openbind_a71ev2a_c1_scaffold_products.sdf', '/opt/xchem-fragalysis-2/maxwin/openbind-hippo/a71ev2a/cycle_01/bulkdock/openbind_a71ev2a_c1_scaffolds.sdf']

>  <fragmenstein_runtime>  (383) 
2.334721

$$$$
C118718-P174
     RDKit          3D

 24 26  0  0  0  0  0  0  0  0999 V2000
   14.2743   17.2003   19.4801 C   0  0  0  0  0  0  0  0  0  0  0  0
   13.5639   15.9738   19.6418 O   0  0  0  0  0  0  0  0  0  0  0  0
   13.1998   15.6313   20.9110 C   0  0  0  0  0  0  0  0  0  0  0  0
   13.6295   16.1492   21.9310 O   0  0  0  0  0  0  0  0  0  0  0  0
   12.0865   14.5670   20.8567 C   0  0  2  0  0  0  0  0  0  0  0  0
   11.0853   14.9944   19.7713 C   0  0  0  0  0  0  0  0  0  0  0  0
   10.5074   16.3156   19.9464 N   0  0  0  0  0  0  0  0  0  0  0  0
    9.8083   16.9929   18.9971 C   0  0  0  0  0  0  0  0  0  0  0  0
    9.3515   18.1287   19.6207 C   0  0  0  0  0  0  0  0  0  0  0  0
    9.8321   18.2035   20.8922 N   0  0  0  0  0  0  0  0  0  0  0  0
   10.5245   17.1075   21.0556 C   0  0  0  0  0  0  0  0  0  0  0  0
   11.3414   14.3572   22.1104 N   0  0  0  0  0  0  0  0  0  0  0  0
   11.6940   13.5138   23.3613 C   0  0  0  0  0  0  0  0  0  0  0  0
   12.6633   12.9175   23.6232 O   0  0  0  0  0  0  0  0  0  0  0  0
   10.4838   13.6193   24.3020 C   0  0  0  0  0  0  0  0  0  0  0  0
    9.5208   12.4656   24.2430 C   0  0  0  0  0  0  0  0  0  0  0  0
    9.5718   11.3210   23.4720 C   0  0  0  0  0  0  0  0  0  0  0  0
    8.5807   10.4655   23.8774 N   0  0  0  0  0  0  0  0  0  0  0  0
    7.8199   11.0615   24.8548 C   0  0  0  0  0  0  0  0  0  0  0  0
    6.7243   10.5733   25.5766 C   0  0  0  0  0  0  0  0  0  0  0  0
    6.1084   11.4388   26.4859 C   0  0  0  0  0  0  0  0  0  0  0  0
    6.5677   12.7413   26.6605 C   0  0  0  0  0  0  0  0  0  0  0  0
    7.6801   13.2049   25.9502 C   0  0  0  0  0  0  0  0  0  0  0  0
    8.3347   12.3452   25.0431 C   0  0  0  0  0  0  0  0  0  0  0  0
  1  2  1  0
  2  3  1  0
  3  4  2  0
  3  5  1  0
  5  6  1  6
  6  7  1  0
  7  8  1  0
  8  9  2  0
  9 10  1  0
 10 11  2  0
  5 12  1  0
 12 13  1  0
 13 14  2  0
 13 15  1  0
 15 16  1  0
 16 17  2  0
 17 18  1  0
 18 19  1  0
 19 20  2  0
 20 21  1  0
 21 22  2  0
 22 23  1  0
 23 24  2  0
 11  7  1  0
 24 16  1  0
 24 19  1  0
M  END
>  <ref_pdb>  (384) 
A3371a

>  <subsites>  (384) 
1 - Active Site

>  <HIPPO Compound ID>  (384) 
18489

>  <energy_score>  (384) 
-7.985707

>  <fragmenstein_mode>  (384) 
expansion

>  <scratch_subdir>  (384) 
/opt/xchem-fragalysis-2/maxwin/BulkDock/SCRATCH/512180/C118718-P174

>  <smiles>  (384) 
COC(=O)[C@H](Cn1ccnc1)NC(=O)Cc1c[nH]c2ccccc12

>  <alias>  (384) 
C118718-P174

>  <ref_mols>  (384) 
A3568a,A3371a

>  <inspiration_score>  (384) 
None

>  <tags>  (384) 
BulkDock Fragalysis export,fragmenstein_placed,openbind_a71ev2a_c1_scaffolds,openbind_a71ev2a_c1_knitwork_pure

>  <fragmenstein_outcome>  (384) 
acceptable

>  <fragmenstein_error>  (384) 


>  <distance_score>  (384) 
0.992695

>  <inchikey>  (384) 
VFKNZSCHZMQTED-UHFFFAOYSA-N

>  <name>  (384) 
C118718-P174

>  <HIPPO Pose ID>  (384) 
289709

>  <Energy>  (384) 
70.167953

>  <exports>  (384) 
['/opt/xchem-fragalysis-2/maxwin/BulkDock/OUTPUTS/openbind_a71ev2a_c1_knitwork_pure_165VWF8.sdf', '/opt/xchem-fragalysis-2/maxwin/BulkDock/OUTPUTS/openbind_a71ev2a_c1_knitwork_pure_1B07PTU.sdf', '/opt/xchem-fragalysis-2/maxwin/BulkDock/OUTPUTS/openbind_a71ev2a_c1_knitwork_pure_1B07UWE.sdf', '/opt/xchem-fragalysis-2/maxwin/openbind-hippo/a71ev2a/openbind_a71ev2a_c1_scaffold_products.sdf', '/opt/xchem-fragalysis-2/maxwin/openbind-hippo/a71ev2a/cycle_01/bulkdock/openbind_a71ev2a_c1_scaffold_products.sdf', '/opt/xchem-fragalysis-2/maxwin/openbind-hippo/a71ev2a/cycle_01/bulkdock/openbind_a71ev2a_c1_scaffolds.sdf']

>  <fragmenstein_runtime>  (384) 
6.044892

$$$$
C54664-P180
     RDKit          3D

 22 25  0  0  0  0  0  0  0  0999 V2000
   21.8564   29.3362   14.2303 O   0  0  0  0  0  0  0  0  0  0  0  0
   22.5661   28.3583   14.4007 C   0  0  0  0  0  0  0  0  0  0  0  0
   22.0846   27.0014   14.8193 C   0  0  0  0  0  0  0  0  0  0  0  0
   23.3311   26.1203   14.7028 C   0  0  2  0  0  0  0  0  0  0  0  0
   23.5699   25.1548   15.7881 N   0  0  0  0  0  0  0  0  0  0  0  0
   23.7510   25.7088   17.1242 C   0  0  0  0  0  0  0  0  0  0  0  0
   24.4263   24.6619   18.0159 C   0  0  0  0  0  0  0  0  0  0  0  0
   23.9729   23.2203   17.7003 C   0  0  0  0  0  0  0  0  0  0  0  0
   24.1103   22.3700   18.8774 N   0  0  0  0  0  0  0  0  0  0  0  0
   23.0376   22.0538   19.6453 N   0  0  0  0  0  0  0  0  0  0  0  0
   23.5806   21.3968   20.6746 C   0  0  0  0  0  0  0  0  0  0  0  0
   24.9852   21.2867   20.5852 C   0  0  0  0  0  0  0  0  0  0  0  0
   26.0121   20.7277   21.3678 C   0  0  0  0  0  0  0  0  0  0  0  0
   27.3359   20.8273   20.9194 C   0  0  0  0  0  0  0  0  0  0  0  0
   27.6360   21.4648   19.7169 C   0  0  0  0  0  0  0  0  0  0  0  0
   26.6284   22.0250   18.9278 C   0  0  0  0  0  0  0  0  0  0  0  0
   25.3086   21.9220   19.3917 C   0  0  0  0  0  0  0  0  0  0  0  0
   22.5773   23.2454   17.0787 C   0  0  0  0  0  0  0  0  0  0  0  0
   22.6097   24.0429   15.7680 C   0  0  0  0  0  0  0  0  0  0  0  0
   24.4661   27.1263   14.5362 C   0  0  0  0  0  0  0  0  0  0  0  0
   25.6671   26.9137   14.5863 O   0  0  0  0  0  0  0  0  0  0  0  0
   23.9158   28.3449   14.2908 N   0  0  0  0  0  0  0  0  0  0  0  0
  1  2  2  0
  2  3  1  0
  3  4  1  0
  4  5  1  1
  5  6  1  0
  6  7  1  0
  7  8  1  0
  8  9  1  0
  9 10  1  0
 10 11  2  0
 11 12  1  0
 12 13  2  0
 13 14  1  0
 14 15  2  0
 15 16  1  0
 16 17  2  0
  8 18  1  0
 18 19  1  0
  4 20  1  0
 20 21  2  0
 20 22  1  0
 22  2  1  0
 19  5  1  0
 17  9  1  0
 17 12  1  0
M  END
>  <ref_pdb>  (385) 
A3417a

>  <subsites>  (385) 
1 - Active Site,5 - A3181/A/202/1

>  <HIPPO Compound ID>  (385) 
46019

>  <energy_score>  (385) 
-38.24682

>  <fragmenstein_mode>  (385) 
expansion

>  <scratch_subdir>  (385) 
/opt/xchem-fragalysis-2/maxwin/BulkDock/SCRATCH/512181/C54664-P180

>  <smiles>  (385) 
O=C1C[C@H](N2CCC(n3ncc4ccccc43)CC2)C(=O)N1

>  <alias>  (385) 
C54664-P180

>  <ref_mols>  (385) 
A3181b,A3417a

>  <inspiration_score>  (385) 
None

>  <tags>  (385) 
BulkDock Fragalysis export,fragmenstein_placed,openbind_a71ev2a_c1_scaffolds,openbind_a71ev2a_c1_knitwork_pure

>  <fragmenstein_outcome>  (385) 
acceptable

>  <fragmenstein_error>  (385) 


>  <distance_score>  (385) 
0.549482

>  <inchikey>  (385) 
SWXAVEIWNZULFS-UHFFFAOYSA-N

>  <name>  (385) 
C54664-P180

>  <HIPPO Pose ID>  (385) 
294641

>  <Energy>  (385) 
13.495074

>  <exports>  (385) 
['/opt/xchem-fragalysis-2/maxwin/BulkDock/OUTPUTS/openbind_a71ev2a_c1_knitwork_pure_165VWF8.sdf', '/opt/xchem-fragalysis-2/maxwin/BulkDock/OUTPUTS/openbind_a71ev2a_c1_knitwork_pure_1B07PTU.sdf', '/opt/xchem-fragalysis-2/maxwin/BulkDock/OUTPUTS/openbind_a71ev2a_c1_knitwork_pure_1B07UWE.sdf', '/opt/xchem-fragalysis-2/maxwin/openbind-hippo/a71ev2a/openbind_a71ev2a_c1_scaffold_products.sdf', '/opt/xchem-fragalysis-2/maxwin/openbind-hippo/a71ev2a/cycle_01/bulkdock/openbind_a71ev2a_c1_scaffold_products.sdf', '/opt/xchem-fragalysis-2/maxwin/openbind-hippo/a71ev2a/cycle_01/bulkdock/openbind_a71ev2a_c1_scaffolds.sdf']

>  <fragmenstein_runtime>  (385) 
1.472115

$$$$
C55786-P481
     RDKit          3D

 22 24  0  0  0  0  0  0  0  0999 V2000
   -1.9668   13.6947   17.8469 O   0  0  0  0  0  0  0  0  0  0  0  0
   -1.0859   14.4466   17.6852 C   0  0  0  0  0  0  0  0  0  0  0  0
   -1.0643   15.4306   16.5235 C   0  0  0  0  0  0  0  0  0  0  0  0
   -1.2060   14.8502   15.1933 N   0  0  0  0  0  0  0  0  0  0  0  0
   -1.5429   13.5842   14.8152 C   0  0  0  0  0  0  0  0  0  0  0  0
   -1.6585   13.6117   13.4443 C   0  0  0  0  0  0  0  0  0  0  0  0
   -1.3292   14.9341   13.0641 C   0  0  0  0  0  0  0  0  0  0  0  0
   -1.3184   15.5680   11.6994 C   0  0  2  0  0  0  0  0  0  0  0  0
   -2.5462   16.4725   11.4806 C   0  0  0  0  0  0  0  0  0  0  0  0
   -2.8683   16.6721    9.9963 C   0  0  0  0  0  0  0  0  0  0  0  0
   -1.6250   16.5299    9.1222 C   0  0  0  0  0  0  0  0  0  0  0  0
   -0.9916   15.2122    9.2343 N   0  0  0  0  0  0  0  0  0  0  0  0
   -1.2042   14.5688   10.5384 C   0  0  0  0  0  0  0  0  0  0  0  0
   -0.9881   15.6720   14.1315 N   0  0  0  0  0  0  0  0  0  0  0  0
    0.1846   14.7117   18.5460 N   0  0  0  0  0  0  0  0  0  0  0  0
    0.6733   14.0399   19.7255 C   0  0  0  0  0  0  0  0  0  0  0  0
    1.5066   12.8227   19.3279 C   0  0  0  0  0  0  0  0  0  0  0  0
    2.8018   13.2606   18.6354 C   0  0  0  0  0  0  0  0  0  0  0  0
    3.6340   12.0446   18.2947 C   0  0  0  0  0  0  0  0  0  0  0  0
    3.9266   11.2792   19.4669 O   0  0  0  0  0  0  0  0  0  0  0  0
    2.7443   10.7844   20.0895 C   0  0  0  0  0  0  0  0  0  0  0  0
    1.8453   11.9330   20.5297 C   0  0  0  0  0  0  0  0  0  0  0  0
  1  2  2  0
  2  3  1  0
  3  4  1  0
  4  5  1  0
  5  6  2  0
  6  7  1  0
  8  7  1  1
  8  9  1  0
  9 10  1  0
 10 11  1  0
 11 12  1  0
 12 13  1  0
  7 14  2  0
  2 15  1  0
 15 16  1  0
 16 17  1  0
 17 18  1  0
 18 19  1  0
 19 20  1  0
 20 21  1  0
 21 22  1  0
 14  4  1  0
 22 17  1  0
 13  8  1  0
M  END
>  <ref_pdb>  (386) 
A4836a

>  <subsites>  (386) 
1 - Active Site

>  <HIPPO Compound ID>  (386) 
46081

>  <energy_score>  (386) 
-31.649314

>  <fragmenstein_mode>  (386) 
expansion

>  <scratch_subdir>  (386) 
/opt/xchem-fragalysis-2/maxwin/BulkDock/SCRATCH/512181/C55786-P481

>  <smiles>  (386) 
O=C(Cn1ccc([C@@H]2CCCNC2)n1)NCC1CCOCC1

>  <alias>  (386) 
C55786-P481

>  <ref_mols>  (386) 
A0473a,A4836a

>  <inspiration_score>  (386) 
None

>  <tags>  (386) 
BulkDock Fragalysis export,fragmenstein_placed,openbind_a71ev2a_c1_scaffolds,openbind_a71ev2a_c1_knitwork_pure

>  <fragmenstein_outcome>  (386) 
acceptable

>  <fragmenstein_error>  (386) 


>  <distance_score>  (386) 
0.917862

>  <inchikey>  (386) 
CMXCFLAPBZHWHG-UHFFFAOYSA-N

>  <name>  (386) 
C55786-P481

>  <HIPPO Pose ID>  (386) 
296576

>  <Energy>  (386) 
50.052812

>  <exports>  (386) 
['/opt/xchem-fragalysis-2/maxwin/BulkDock/OUTPUTS/openbind_a71ev2a_c1_knitwork_pure_165VWF8.sdf', '/opt/xchem-fragalysis-2/maxwin/BulkDock/OUTPUTS/openbind_a71ev2a_c1_knitwork_pure_1B07PTU.sdf', '/opt/xchem-fragalysis-2/maxwin/BulkDock/OUTPUTS/openbind_a71ev2a_c1_knitwork_pure_1B07UWE.sdf', '/opt/xchem-fragalysis-2/maxwin/openbind-hippo/a71ev2a/openbind_a71ev2a_c1_scaffold_products.sdf', '/opt/xchem-fragalysis-2/maxwin/openbind-hippo/a71ev2a/cycle_01/bulkdock/openbind_a71ev2a_c1_scaffold_products.sdf', '/opt/xchem-fragalysis-2/maxwin/openbind-hippo/a71ev2a/cycle_01/bulkdock/openbind_a71ev2a_c1_scaffolds.sdf']

>  <fragmenstein_runtime>  (386) 
7.132569

$$$$
C48087-P405
     RDKit          3D

 21 24  0  0  0  0  0  0  0  0999 V2000
    2.3729   14.6831   22.3118 C   0  0  0  0  0  0  0  0  0  0  0  0
    2.5018   15.5004   21.2056 C   0  0  0  0  0  0  0  0  0  0  0  0
    3.6563   16.1063   20.8596 N   0  0  0  0  0  0  0  0  0  0  0  0
    4.7458   15.7898   21.6003 C   0  0  0  0  0  0  0  0  0  0  0  0
    4.7540   14.9254   22.6838 C   0  0  0  0  0  0  0  0  0  0  0  0
    6.0273   14.4913   23.3837 C   0  0  2  0  0  0  0  0  0  0  0  0
    6.2067   15.1801   24.7437 C   0  0  0  0  0  0  0  0  0  0  0  0
    7.4914   14.7295   25.4552 C   0  0  0  0  0  0  0  0  0  0  0  0
    8.3220   13.7525   24.6249 C   0  0  0  0  0  0  0  0  0  0  0  0
    8.5573   14.3131   23.2898 N   0  0  0  0  0  0  0  0  0  0  0  0
    9.8085   14.8600   22.8744 C   0  0  0  0  0  0  0  0  0  0  0  0
   10.8599   15.0782   23.7063 C   0  0  0  0  0  0  0  0  0  0  0  0
   12.0874   15.6144   23.3598 N   0  0  0  0  0  0  0  0  0  0  0  0
   12.2612   15.9550   22.1121 C   0  0  0  0  0  0  0  0  0  0  0  0
   11.2586   15.7443   21.1340 C   0  0  0  0  0  0  0  0  0  0  0  0
   11.3353   15.9710   19.8494 N   0  0  0  0  0  0  0  0  0  0  0  0
   10.0911   15.6233   19.4407 C   0  0  0  0  0  0  0  0  0  0  0  0
    9.2616   15.1861   20.4031 N   0  0  0  0  0  0  0  0  0  0  0  0
   10.0419   15.2331   21.5120 N   0  0  0  0  0  0  0  0  0  0  0  0
    7.3220   14.6527   22.5416 C   0  0  0  0  0  0  0  0  0  0  0  0
    3.5109   14.4159   23.0692 C   0  0  0  0  0  0  0  0  0  0  0  0
  1  2  2  0
  2  3  1  0
  3  4  2  0
  4  5  1  0
  6  5  1  6
  6  7  1  0
  7  8  1  0
  8  9  1  0
  9 10  1  0
 10 11  1  0
 11 12  2  0
 12 13  1  0
 13 14  2  0
 14 15  1  0
 15 16  2  0
 16 17  1  0
 17 18  2  0
 18 19  1  0
 10 20  1  0
  5 21  2  0
 21  1  1  0
 20  6  1  0
 19 11  1  0
 19 15  1  0
M  END
>  <ref_pdb>  (387) 
A4570a

>  <subsites>  (387) 
1 - Active Site

>  <HIPPO Compound ID>  (387) 
48684

>  <energy_score>  (387) 
-38.325908

>  <fragmenstein_mode>  (387) 
expansion

>  <scratch_subdir>  (387) 
/opt/xchem-fragalysis-2/maxwin/BulkDock/SCRATCH/512181/C48087-P405

>  <smiles>  (387) 
c1cncc([C@@H]2CCCN(c3cncc4ncnn34)C2)c1

>  <alias>  (387) 
C48087-P405

>  <ref_mols>  (387) 
A4570a,A2629a

>  <inspiration_score>  (387) 
None

>  <tags>  (387) 
BulkDock Fragalysis export,fragmenstein_placed,openbind_a71ev2a_c1_scaffolds,openbind_a71ev2a_c1_knitwork_pure

>  <fragmenstein_outcome>  (387) 
acceptable

>  <fragmenstein_error>  (387) 


>  <distance_score>  (387) 
0.9876

>  <inchikey>  (387) 
PRAKSTQMHOCJPE-UHFFFAOYSA-N

>  <name>  (387) 
C48087-P405

>  <HIPPO Pose ID>  (387) 
299541

>  <Energy>  (387) 
115.50533

>  <exports>  (387) 
['/opt/xchem-fragalysis-2/maxwin/BulkDock/OUTPUTS/openbind_a71ev2a_c1_knitwork_pure_165VWF8.sdf', '/opt/xchem-fragalysis-2/maxwin/BulkDock/OUTPUTS/openbind_a71ev2a_c1_knitwork_pure_1B07PTU.sdf', '/opt/xchem-fragalysis-2/maxwin/BulkDock/OUTPUTS/openbind_a71ev2a_c1_knitwork_pure_1B07UWE.sdf', '/opt/xchem-fragalysis-2/maxwin/openbind-hippo/a71ev2a/openbind_a71ev2a_c1_scaffold_products.sdf', '/opt/xchem-fragalysis-2/maxwin/openbind-hippo/a71ev2a/cycle_01/bulkdock/openbind_a71ev2a_c1_scaffold_products.sdf', '/opt/xchem-fragalysis-2/maxwin/openbind-hippo/a71ev2a/cycle_01/bulkdock/openbind_a71ev2a_c1_scaffolds.sdf']

>  <fragmenstein_runtime>  (387) 
1.877427

$$$$
C12359-P310
     RDKit          3D

 13 13  0  0  0  0  0  0  0  0999 V2000
    7.2094   15.9671   26.4656 C   0  0  0  0  0  0  0  0  0  0  0  0
    8.0221   15.4603   25.2890 C   0  0  0  0  0  0  0  0  0  0  0  0
    7.1331   15.1006   24.1025 C   0  0  0  0  0  0  0  0  0  0  0  0
    7.9532   13.9989   22.9550 S   0  0  0  0  0  0  0  0  0  0  0  0
    9.0138   14.7493   22.3197 O   0  0  0  0  0  0  0  0  0  0  0  0
    6.9866   13.2909   22.1474 O   0  0  0  0  0  0  0  0  0  0  0  0
    8.7349   12.8550   23.9366 N   0  0  0  0  0  0  0  0  0  0  0  0
    8.0022   11.8543   24.6689 C   0  0  0  0  0  0  0  0  0  0  0  0
    7.0386   12.1816   25.6224 C   0  0  0  0  0  0  0  0  0  0  0  0
    6.3754   11.1974   26.3498 C   0  0  0  0  0  0  0  0  0  0  0  0
    6.7185    9.8874   26.1188 C   0  0  0  0  0  0  0  0  0  0  0  0
    7.6856    9.5165   25.2565 N   0  0  0  0  0  0  0  0  0  0  0  0
    8.3036   10.5024   24.5485 C   0  0  0  0  0  0  0  0  0  0  0  0
  1  2  1  0
  2  3  1  0
  3  4  1  0
  4  5  2  0
  4  6  2  0
  4  7  1  0
  7  8  1  0
  8  9  2  0
  9 10  1  0
 10 11  2  0
 11 12  1  0
 12 13  2  0
 13  8  1  0
M  END
>  <ref_pdb>  (388) 
A4333a

>  <subsites>  (388) 
1 - Active Site

>  <HIPPO Compound ID>  (388) 
49548

>  <energy_score>  (388) 
-22.243861

>  <fragmenstein_mode>  (388) 
expansion

>  <scratch_subdir>  (388) 
/opt/xchem-fragalysis-2/maxwin/BulkDock/SCRATCH/512181/C12359-P310

>  <smiles>  (388) 
CCCS(=O)(=O)Nc1cccnc1

>  <alias>  (388) 
C12359-P310

>  <ref_mols>  (388) 
A0719a,A4333a

>  <inspiration_score>  (388) 
None

>  <tags>  (388) 
BulkDock Fragalysis export,fragmenstein_placed,openbind_a71ev2a_c1_scaffolds,openbind_a71ev2a_c1_knitwork_pure

>  <fragmenstein_outcome>  (388) 
acceptable

>  <fragmenstein_error>  (388) 


>  <distance_score>  (388) 
0.921123

>  <inchikey>  (388) 
USFYQCKGTJDZSY-UHFFFAOYSA-N

>  <name>  (388) 
C12359-P310

>  <HIPPO Pose ID>  (388) 
299547

>  <Energy>  (388) 
-15.581424

>  <exports>  (388) 
['/opt/xchem-fragalysis-2/maxwin/BulkDock/OUTPUTS/openbind_a71ev2a_c1_knitwork_pure_165VWF8.sdf', '/opt/xchem-fragalysis-2/maxwin/BulkDock/OUTPUTS/openbind_a71ev2a_c1_knitwork_pure_1B07PTU.sdf', '/opt/xchem-fragalysis-2/maxwin/BulkDock/OUTPUTS/openbind_a71ev2a_c1_knitwork_pure_1B07UWE.sdf', '/opt/xchem-fragalysis-2/maxwin/openbind-hippo/a71ev2a/openbind_a71ev2a_c1_scaffold_products.sdf', '/opt/xchem-fragalysis-2/maxwin/openbind-hippo/a71ev2a/cycle_01/bulkdock/openbind_a71ev2a_c1_scaffold_products.sdf', '/opt/xchem-fragalysis-2/maxwin/openbind-hippo/a71ev2a/cycle_01/bulkdock/openbind_a71ev2a_c1_scaffolds.sdf']

>  <fragmenstein_runtime>  (388) 
1.920507

$$$$
C46323-P374
     RDKit          3D

 21 23  0  0  0  0  0  0  0  0999 V2000
   20.0537   -4.1669   18.5232 O   0  0  0  0  0  0  0  0  0  0  0  0
   18.9595   -4.3470   18.8964 C   0  0  0  0  0  0  0  0  0  0  0  0
   18.2972   -3.5468   20.0474 C   0  0  0  0  0  0  0  0  0  0  0  0
   19.1497   -2.7366   20.8385 O   0  0  0  0  0  0  0  0  0  0  0  0
   19.5726   -1.5261   20.1932 C   0  0  1  0  0  0  0  0  0  0  0  0
   18.5642   -0.4032   20.4773 C   0  0  0  0  0  0  0  0  0  0  0  0
   18.9508    0.4604   21.6796 C   0  0  0  0  0  0  0  0  0  0  0  0
   19.7957   -0.3097   22.6850 C   0  0  0  0  0  0  0  0  0  0  0  0
   21.0677   -0.7532   22.1227 N   0  0  0  0  0  0  0  0  0  0  0  0
   20.9787   -1.1504   20.7045 C   0  0  0  0  0  0  0  0  0  0  0  0
   17.8737   -5.3505   18.3974 N   0  0  0  0  0  0  0  0  0  0  0  0
   17.9449   -6.3369   17.4604 C   0  0  0  0  0  0  0  0  0  0  0  0
   16.8762   -7.1340   17.3393 N   0  0  0  0  0  0  0  0  0  0  0  0
   17.2045   -7.9657   16.3397 N   0  0  0  0  0  0  0  0  0  0  0  0
   18.4396   -7.7421   15.8047 C   0  0  0  0  0  0  0  0  0  0  0  0
   19.1086   -8.3601   14.7430 C   0  0  0  0  0  0  0  0  0  0  0  0
   20.3635   -7.8551   14.4126 C   0  0  0  0  0  0  0  0  0  0  0  0
   21.0177   -8.4387   13.3637 O   0  0  0  0  0  0  0  0  0  0  0  0
   20.9355   -6.7999   15.1124 C   0  0  0  0  0  0  0  0  0  0  0  0
   20.2465   -6.2057   16.1779 C   0  0  0  0  0  0  0  0  0  0  0  0
   18.9684   -6.6779   16.5337 C   0  0  0  0  0  0  0  0  0  0  0  0
  1  2  2  0
  2  3  1  0
  3  4  1  0
  5  4  1  1
  5  6  1  0
  6  7  1  0
  7  8  1  0
  8  9  1  0
  9 10  1  0
  2 11  1  0
 11 12  1  0
 12 13  2  0
 13 14  1  0
 14 15  1  0
 15 16  2  0
 16 17  1  0
 17 18  1  0
 17 19  2  0
 19 20  1  0
 20 21  2  0
 10  5  1  0
 21 12  1  0
 21 15  1  0
M  END
>  <ref_pdb>  (389) 
A4463a

>  <subsites>  (389) 
1 - Active Site,2 - A3977/A/202/1

>  <HIPPO Compound ID>  (389) 
45698

>  <energy_score>  (389) 
-21.813102

>  <fragmenstein_mode>  (389) 
expansion

>  <scratch_subdir>  (389) 
/opt/xchem-fragalysis-2/maxwin/BulkDock/SCRATCH/512181/C46323-P374

>  <smiles>  (389) 
O=C(CO[C@H]1CCCNC1)Nc1n[nH]c2cc(O)ccc12

>  <alias>  (389) 
C46323-P374

>  <ref_mols>  (389) 
A0497a,A4463a

>  <inspiration_score>  (389) 
None

>  <tags>  (389) 
BulkDock Fragalysis export,fragmenstein_placed,openbind_a71ev2a_c1_scaffolds,openbind_a71ev2a_c1_knitwork_pure

>  <fragmenstein_outcome>  (389) 
acceptable

>  <fragmenstein_error>  (389) 


>  <distance_score>  (389) 
0.86678

>  <inchikey>  (389) 
AZXXRKXZDHOYLM-UHFFFAOYSA-N

>  <name>  (389) 
C46323-P374

>  <HIPPO Pose ID>  (389) 
299605

>  <Energy>  (389) 
53.408065

>  <exports>  (389) 
['/opt/xchem-fragalysis-2/maxwin/BulkDock/OUTPUTS/openbind_a71ev2a_c1_knitwork_pure_165VWF8.sdf', '/opt/xchem-fragalysis-2/maxwin/BulkDock/OUTPUTS/openbind_a71ev2a_c1_knitwork_pure_1B07PTU.sdf', '/opt/xchem-fragalysis-2/maxwin/BulkDock/OUTPUTS/openbind_a71ev2a_c1_knitwork_pure_1B07UWE.sdf', '/opt/xchem-fragalysis-2/maxwin/openbind-hippo/a71ev2a/openbind_a71ev2a_c1_scaffold_products.sdf', '/opt/xchem-fragalysis-2/maxwin/openbind-hippo/a71ev2a/cycle_01/bulkdock/openbind_a71ev2a_c1_scaffold_products.sdf', '/opt/xchem-fragalysis-2/maxwin/openbind-hippo/a71ev2a/cycle_01/bulkdock/openbind_a71ev2a_c1_scaffolds.sdf']

>  <fragmenstein_runtime>  (389) 
2.942086

$$$$
C46357-P374
     RDKit          3D

 23 26  0  0  0  0  0  0  0  0999 V2000
   21.6740   -5.5257   13.5365 O   0  0  0  0  0  0  0  0  0  0  0  0
   21.5215   -5.7165   14.7537 N   0  0  0  0  0  0  0  0  0  0  0  0
   22.2576   -5.2777   15.6499 O   0  0  0  0  0  0  0  0  0  0  0  0
   20.3992   -6.5588   15.1635 C   0  0  0  0  0  0  0  0  0  0  0  0
   19.9349   -7.5406   14.2791 C   0  0  0  0  0  0  0  0  0  0  0  0
   18.8320   -8.3292   14.6136 C   0  0  0  0  0  0  0  0  0  0  0  0
   18.2543   -8.1125   15.8678 C   0  0  0  0  0  0  0  0  0  0  0  0
   17.1920   -8.7156   16.4850 N   0  0  0  0  0  0  0  0  0  0  0  0
   17.0110   -8.3385   17.7592 N   0  0  0  0  0  0  0  0  0  0  0  0
   17.9368   -7.3858   17.9442 C   0  0  0  0  0  0  0  0  0  0  0  0
   18.1589   -6.6961   19.3361 C   0  0  0  0  0  0  0  0  0  0  0  0
   18.9346   -5.6515   19.5449 N   0  0  0  0  0  0  0  0  0  0  0  0
   18.8576   -5.4737   20.9009 C   0  0  0  0  0  0  0  0  0  0  0  0
   19.5228   -4.3492   21.6215 C   0  0  1  0  0  0  0  0  0  0  0  0
   20.7661   -3.8163   20.9028 C   0  0  0  0  0  0  0  0  0  0  0  0
   21.4227   -2.6784   21.6950 C   0  0  0  0  0  0  0  0  0  0  0  0
   20.4894   -2.0320   22.7226 C   0  0  0  0  0  0  0  0  0  0  0  0
   19.1451   -1.8933   22.1828 N   0  0  0  0  0  0  0  0  0  0  0  0
   18.5280   -3.1933   21.8728 C   0  0  0  0  0  0  0  0  0  0  0  0
   18.0953   -6.3703   21.5407 N   0  0  0  0  0  0  0  0  0  0  0  0
   17.6041   -7.1659   20.4997 O   0  0  0  0  0  0  0  0  0  0  0  0
   18.7236   -7.1709   16.7806 C   0  0  0  0  0  0  0  0  0  0  0  0
   19.8180   -6.3591   16.4263 C   0  0  0  0  0  0  0  0  0  0  0  0
  1  2  2  0
  2  3  1  0
  2  4  1  0
  4  5  2  0
  5  6  1  0
  6  7  2  0
  7  8  1  0
  8  9  1  0
  9 10  2  0
 10 11  1  0
 11 12  2  0
 12 13  1  0
 14 13  1  6
 14 15  1  0
 15 16  1  0
 16 17  1  0
 17 18  1  0
 18 19  1  0
 13 20  2  0
 20 21  1  0
 10 22  1  0
 22 23  2  0
 23  4  1  0
 22  7  1  0
 21 11  1  0
 19 14  1  0
M  CHG  2   2   1   3  -1
M  END
>  <ref_pdb>  (390) 
A4463a

>  <subsites>  (390) 
1 - Active Site,2 - A3977/A/202/1

>  <HIPPO Compound ID>  (390) 
48641

>  <energy_score>  (390) 
-41.436151

>  <fragmenstein_mode>  (390) 
expansion

>  <scratch_subdir>  (390) 
/opt/xchem-fragalysis-2/maxwin/BulkDock/SCRATCH/512181/C46357-P374

>  <smiles>  (390) 
O=[N+]([O-])c1ccc2[nH]nc(-c3nc([C@H]4CCCNC4)no3)c2c1

>  <alias>  (390) 
C46357-P374

>  <ref_mols>  (390) 
A0497a,A4463a

>  <inspiration_score>  (390) 
None

>  <tags>  (390) 
BulkDock Fragalysis export,fragmenstein_placed,openbind_a71ev2a_c1_scaffolds,openbind_a71ev2a_c1_knitwork_pure

>  <fragmenstein_outcome>  (390) 
acceptable

>  <fragmenstein_error>  (390) 


>  <distance_score>  (390) 
0.73029

>  <inchikey>  (390) 
HWVWLXJFARWMTE-UHFFFAOYSA-N

>  <name>  (390) 
C46357-P374

>  <HIPPO Pose ID>  (390) 
299607

>  <Energy>  (390) 
110.060759

>  <exports>  (390) 
['/opt/xchem-fragalysis-2/maxwin/BulkDock/OUTPUTS/openbind_a71ev2a_c1_knitwork_pure_165VWF8.sdf', '/opt/xchem-fragalysis-2/maxwin/BulkDock/OUTPUTS/openbind_a71ev2a_c1_knitwork_pure_1B07PTU.sdf', '/opt/xchem-fragalysis-2/maxwin/BulkDock/OUTPUTS/openbind_a71ev2a_c1_knitwork_pure_1B07UWE.sdf', '/opt/xchem-fragalysis-2/maxwin/openbind-hippo/a71ev2a/openbind_a71ev2a_c1_scaffold_products.sdf', '/opt/xchem-fragalysis-2/maxwin/openbind-hippo/a71ev2a/cycle_01/bulkdock/openbind_a71ev2a_c1_scaffold_products.sdf', '/opt/xchem-fragalysis-2/maxwin/openbind-hippo/a71ev2a/cycle_01/bulkdock/openbind_a71ev2a_c1_scaffolds.sdf']

>  <fragmenstein_runtime>  (390) 
3.056646

$$$$
C48566-P93
     RDKit          3D

 19 20  0  0  0  0  0  0  0  0999 V2000
    8.3804   18.6149   18.4242 C   0  0  0  0  0  0  0  0  0  0  0  0
    9.5866   17.7979   18.8317 C   0  0  0  0  0  0  0  0  0  0  0  0
    9.5481   16.3815   18.7354 O   0  0  0  0  0  0  0  0  0  0  0  0
   10.7697   15.8566   18.4545 C   0  0  0  0  0  0  0  0  0  0  0  0
   11.6263   16.3533   17.7445 O   0  0  0  0  0  0  0  0  0  0  0  0
   11.0595   14.6096   19.1945 C   0  0  0  0  0  0  0  0  0  0  0  0
   11.6165   14.7764   20.5936 C   0  0  0  0  0  0  0  0  0  0  0  0
   10.7176   15.2531   21.7410 C   0  0  0  0  0  0  0  0  0  0  0  0
   11.1812   14.5349   23.0283 C   0  0  0  0  0  0  0  0  0  0  0  0
   10.1731   14.5967   24.1722 C   0  0  0  0  0  0  0  0  0  0  0  0
    8.8015   14.2665   23.7686 N   0  0  0  0  0  0  0  0  0  0  0  0
    8.7039   12.9102   23.2279 C   0  0  0  0  0  0  0  0  0  0  0  0
    8.4423   11.8950   24.2656 C   0  0  0  0  0  0  0  0  0  0  0  0
    7.3322   11.8496   25.1314 C   0  0  0  0  0  0  0  0  0  0  0  0
    7.3331   10.5644   25.5988 C   0  0  0  0  0  0  0  0  0  0  0  0
    8.4431    9.9658   25.0799 N   0  0  0  0  0  0  0  0  0  0  0  0
    9.1650   10.7704   24.3027 N   0  0  0  0  0  0  0  0  0  0  0  0
    8.3704   15.1915   22.7177 C   0  0  0  0  0  0  0  0  0  0  0  0
    9.2212   15.0926   21.4689 C   0  0  0  0  0  0  0  0  0  0  0  0
  1  2  1  0
  2  3  1  0
  3  4  1  0
  4  5  2  0
  4  6  1  0
  6  7  1  0
  7  8  1  0
  8  9  1  0
  9 10  1  0
 10 11  1  0
 11 12  1  0
 12 13  1  0
 13 14  1  0
 14 15  2  0
 15 16  1  0
 16 17  1  0
 11 18  1  0
 18 19  1  0
 19  8  1  0
 17 13  2  0
M  END
>  <ref_pdb>  (391) 
A0926a

>  <subsites>  (391) 
1 - Active Site

>  <HIPPO Compound ID>  (391) 
54290

>  <energy_score>  (391) 
-28.103622

>  <fragmenstein_mode>  (391) 
expansion

>  <scratch_subdir>  (391) 
/opt/xchem-fragalysis-2/maxwin/BulkDock/SCRATCH/512181/C48566-P93

>  <smiles>  (391) 
CCOC(=O)CCC1CCN(Cc2cc[nH]n2)CC1

>  <alias>  (391) 
C48566-P93

>  <ref_mols>  (391) 
A0556a,A0926a

>  <inspiration_score>  (391) 
None

>  <tags>  (391) 
BulkDock Fragalysis export,fragmenstein_placed,openbind_a71ev2a_c1_scaffolds,openbind_a71ev2a_c1_knitwork_pure

>  <fragmenstein_outcome>  (391) 
acceptable

>  <fragmenstein_error>  (391) 


>  <distance_score>  (391) 
0.98483

>  <inchikey>  (391) 
HQGYPUCPEKYMFA-UHFFFAOYSA-N

>  <name>  (391) 
C48566-P93

>  <HIPPO Pose ID>  (391) 
299709

>  <Energy>  (391) 
55.09435

>  <exports>  (391) 
['/opt/xchem-fragalysis-2/maxwin/BulkDock/OUTPUTS/openbind_a71ev2a_c1_knitwork_pure_165VWF8.sdf', '/opt/xchem-fragalysis-2/maxwin/BulkDock/OUTPUTS/openbind_a71ev2a_c1_knitwork_pure_1B07PTU.sdf', '/opt/xchem-fragalysis-2/maxwin/BulkDock/OUTPUTS/openbind_a71ev2a_c1_knitwork_pure_1B07UWE.sdf', '/opt/xchem-fragalysis-2/maxwin/openbind-hippo/a71ev2a/openbind_a71ev2a_c1_scaffold_products.sdf', '/opt/xchem-fragalysis-2/maxwin/openbind-hippo/a71ev2a/cycle_01/bulkdock/openbind_a71ev2a_c1_scaffold_products.sdf', '/opt/xchem-fragalysis-2/maxwin/openbind-hippo/a71ev2a/cycle_01/bulkdock/openbind_a71ev2a_c1_scaffolds.sdf']

>  <fragmenstein_runtime>  (391) 
3.930496

$$$$
C45903-P337
     RDKit          3D

 21 23  0  0  0  0  0  0  0  0999 V2000
   23.9426   18.8888   25.2633 O   0  0  0  0  0  0  0  0  0  0  0  0
   23.5170   19.5849   24.0874 C   0  0  1  0  0  0  0  0  0  0  0  0
   24.0543   18.8610   22.8564 C   0  0  0  0  0  0  0  0  0  0  0  0
   25.5813   18.7832   22.8061 C   0  0  0  0  0  0  0  0  0  0  0  0
   26.0565   19.1160   21.4599 N   0  0  0  0  0  0  0  0  0  0  0  0
   26.5715   20.4041   21.2788 C   0  0  0  0  0  0  0  0  0  0  0  0
   25.9308   21.4709   21.8330 C   0  0  0  0  0  0  0  0  0  0  0  0
   26.6463   22.6190   21.8400 C   0  0  0  0  0  0  0  0  0  0  0  0
   27.8315   22.7893   21.2493 N   0  0  0  0  0  0  0  0  0  0  0  0
   28.3602   21.7274   20.6302 C   0  0  0  0  0  0  0  0  0  0  0  0
   29.6011   21.9080   20.0239 N   0  0  0  0  0  0  0  0  0  0  0  0
   30.3352   20.7532   19.5628 C   0  0  0  0  0  0  0  0  0  0  0  0
   31.3166   21.1294   18.4508 C   0  0  0  0  0  0  0  0  0  0  0  0
   31.9487   22.5100   18.6148 C   0  0  0  0  0  0  0  0  0  0  0  0
   31.8181   23.0218   20.0395 C   0  0  0  0  0  0  0  0  0  0  0  0
   30.3595   23.0640   20.4996 C   0  0  0  0  0  0  0  0  0  0  0  0
   27.7318   20.5343   20.6007 N   0  0  0  0  0  0  0  0  0  0  0  0
   21.9854   19.6886   24.0951 C   0  0  0  0  0  0  0  0  0  0  0  0
   21.1129   18.4285   23.8665 C   0  0  0  0  0  0  0  0  0  0  0  0
   20.8566   18.9062   22.4245 C   0  0  0  0  0  0  0  0  0  0  0  0
   21.2888   20.3150   22.8559 C   0  0  0  0  0  0  0  0  0  0  0  0
  2  1  1  1
  2  3  1  0
  3  4  1  0
  4  5  1  0
  5  6  1  0
  6  7  2  0
  7  8  1  0
  8  9  2  0
  9 10  1  0
 10 11  1  0
 11 12  1  0
 12 13  1  0
 13 14  1  0
 14 15  1  0
 15 16  1  0
 10 17  2  0
  2 18  1  0
 18 19  1  0
 19 20  1  0
 20 21  1  0
 17  6  1  0
 21 18  1  0
 16 11  1  0
M  END
>  <ref_pdb>  (392) 
A4214b

>  <subsites>  (392) 
1 - Active Site,5 - A3181/A/202/1

>  <HIPPO Compound ID>  (392) 
46545

>  <energy_score>  (392) 
-38.506494

>  <fragmenstein_mode>  (392) 
expansion

>  <scratch_subdir>  (392) 
/opt/xchem-fragalysis-2/maxwin/BulkDock/SCRATCH/512181/C45903-P337

>  <smiles>  (392) 
O[C@@H](CCNc1ccnc(N2CCCCC2)n1)C1CCC1

>  <alias>  (392) 
C45903-P337

>  <ref_mols>  (392) 
A4214b,A1146a

>  <inspiration_score>  (392) 
None

>  <tags>  (392) 
BulkDock Fragalysis export,fragmenstein_placed,openbind_a71ev2a_c1_scaffolds,openbind_a71ev2a_c1_knitwork_pure

>  <fragmenstein_outcome>  (392) 
acceptable

>  <fragmenstein_error>  (392) 


>  <distance_score>  (392) 
0.553111

>  <inchikey>  (392) 
NFJAZBLUEKNGGI-UHFFFAOYSA-N

>  <name>  (392) 
C45903-P337

>  <HIPPO Pose ID>  (392) 
300967

>  <Energy>  (392) 
-82.863122

>  <exports>  (392) 
['/opt/xchem-fragalysis-2/maxwin/BulkDock/OUTPUTS/openbind_a71ev2a_c1_knitwork_pure_165VWF8.sdf', '/opt/xchem-fragalysis-2/maxwin/BulkDock/OUTPUTS/openbind_a71ev2a_c1_knitwork_pure_1B07PTU.sdf', '/opt/xchem-fragalysis-2/maxwin/BulkDock/OUTPUTS/openbind_a71ev2a_c1_knitwork_pure_1B07UWE.sdf', '/opt/xchem-fragalysis-2/maxwin/openbind-hippo/a71ev2a/openbind_a71ev2a_c1_scaffold_products.sdf', '/opt/xchem-fragalysis-2/maxwin/openbind-hippo/a71ev2a/cycle_01/bulkdock/openbind_a71ev2a_c1_scaffold_products.sdf', '/opt/xchem-fragalysis-2/maxwin/openbind-hippo/a71ev2a/cycle_01/bulkdock/openbind_a71ev2a_c1_scaffolds.sdf']

>  <fragmenstein_runtime>  (392) 
106.40946

$$$$
C29426-P551
     RDKit          3D

 13 13  0  0  0  0  0  0  0  0999 V2000
    7.3075   14.3811   22.7004 C   0  0  0  0  0  0  0  0  0  0  0  0
    8.5726   14.3237   23.5754 C   0  0  1  0  0  0  0  0  0  0  0  0
    8.5639   12.9101   24.2439 C   0  0  0  0  0  0  0  0  0  0  0  0
    7.9366   12.6715   25.1977 O   0  0  0  0  0  0  0  0  0  0  0  0
    9.4145   11.9871   23.3520 N   0  0  0  0  0  0  0  0  0  0  0  0
    9.5901   10.6156   23.3877 O   0  0  0  0  0  0  0  0  0  0  0  0
    9.8514   14.5893   22.8579 N   0  0  0  0  0  0  0  0  0  0  0  0
    9.8042   15.2620   21.5520 C   0  0  0  0  0  0  0  0  0  0  0  0
   11.1408   15.3143   20.8293 C   0  0  0  0  0  0  0  0  0  0  0  0
   12.1901   15.8950   21.7525 C   0  0  0  0  0  0  0  0  0  0  0  0
   12.2926   15.0293   22.9885 C   0  0  0  0  0  0  0  0  0  0  0  0
   10.9685   14.7999   23.6832 C   0  0  0  0  0  0  0  0  0  0  0  0
   10.9287   14.6643   24.9069 O   0  0  0  0  0  0  0  0  0  0  0  0
  2  1  1  6
  2  3  1  0
  3  4  2  0
  3  5  1  0
  5  6  1  0
  2  7  1  0
  7  8  1  0
  8  9  1  0
  9 10  1  0
 10 11  1  0
 11 12  1  0
 12 13  2  0
 12  7  1  0
M  END
>  <ref_pdb>  (393) 
A5036b

>  <subsites>  (393) 
1 - Active Site

>  <HIPPO Compound ID>  (393) 
45947

>  <energy_score>  (393) 
-0.004349

>  <fragmenstein_mode>  (393) 
expansion

>  <scratch_subdir>  (393) 
/opt/xchem-fragalysis-2/maxwin/BulkDock/SCRATCH/512181/C29426-P551

>  <smiles>  (393) 
C[C@@H](C(=O)NO)N1CCCCC1=O

>  <alias>  (393) 
C29426-P551

>  <ref_mols>  (393) 
A1080a,A5036b

>  <inspiration_score>  (393) 
None

>  <tags>  (393) 
BulkDock Fragalysis export,fragmenstein_placed,openbind_a71ev2a_c1_scaffolds,openbind_a71ev2a_c1_knitwork_pure

>  <fragmenstein_outcome>  (393) 
acceptable

>  <fragmenstein_error>  (393) 


>  <distance_score>  (393) 
0.65086

>  <inchikey>  (393) 
IIPXDYCSPRLGJU-UHFFFAOYSA-N

>  <name>  (393) 
C29426-P551

>  <HIPPO Pose ID>  (393) 
301085

>  <Energy>  (393) 
62.822057

>  <exports>  (393) 
['/opt/xchem-fragalysis-2/maxwin/BulkDock/OUTPUTS/openbind_a71ev2a_c1_knitwork_pure_165VWF8.sdf', '/opt/xchem-fragalysis-2/maxwin/BulkDock/OUTPUTS/openbind_a71ev2a_c1_knitwork_pure_1B07PTU.sdf', '/opt/xchem-fragalysis-2/maxwin/BulkDock/OUTPUTS/openbind_a71ev2a_c1_knitwork_pure_1B07UWE.sdf', '/opt/xchem-fragalysis-2/maxwin/openbind-hippo/a71ev2a/openbind_a71ev2a_c1_scaffold_products.sdf', '/opt/xchem-fragalysis-2/maxwin/openbind-hippo/a71ev2a/cycle_01/bulkdock/openbind_a71ev2a_c1_scaffold_products.sdf', '/opt/xchem-fragalysis-2/maxwin/openbind-hippo/a71ev2a/cycle_01/bulkdock/openbind_a71ev2a_c1_scaffolds.sdf']

>  <fragmenstein_runtime>  (393) 
2.821449

$$$$
C54664-P441
     RDKit          3D

 22 25  0  0  0  0  0  0  0  0999 V2000
   24.9489   27.8869   12.4441 O   0  0  0  0  0  0  0  0  0  0  0  0
   24.2623   27.1599   13.1436 C   0  0  0  0  0  0  0  0  0  0  0  0
   24.2314   27.1800   14.6407 C   0  0  0  0  0  0  0  0  0  0  0  0
   23.0347   26.2935   15.0171 C   0  0  2  0  0  0  0  0  0  0  0  0
   23.4311   25.1990   15.9369 N   0  0  0  0  0  0  0  0  0  0  0  0
   23.7479   25.6977   17.2775 C   0  0  0  0  0  0  0  0  0  0  0  0
   24.4778   24.6137   18.0716 C   0  0  0  0  0  0  0  0  0  0  0  0
   23.9433   23.1945   17.7898 C   0  0  0  0  0  0  0  0  0  0  0  0
   24.1316   22.3375   18.9570 N   0  0  0  0  0  0  0  0  0  0  0  0
   23.0928   22.0295   19.7731 N   0  0  0  0  0  0  0  0  0  0  0  0
   23.6780   21.3870   20.7873 C   0  0  0  0  0  0  0  0  0  0  0  0
   25.0781   21.2837   20.6438 C   0  0  0  0  0  0  0  0  0  0  0  0
   26.1375   20.7464   21.3968 C   0  0  0  0  0  0  0  0  0  0  0  0
   27.4420   20.8443   20.8954 C   0  0  0  0  0  0  0  0  0  0  0  0
   27.6908   21.4584   19.6692 C   0  0  0  0  0  0  0  0  0  0  0  0
   26.6499   21.9954   18.9077 C   0  0  0  0  0  0  0  0  0  0  0  0
   25.3506   21.8971   19.4262 C   0  0  0  0  0  0  0  0  0  0  0  0
   22.5039   23.2744   17.2904 C   0  0  0  0  0  0  0  0  0  0  0  0
   22.4254   24.1210   16.0127 C   0  0  0  0  0  0  0  0  0  0  0  0
   22.5406   25.8098   13.6546 C   0  0  0  0  0  0  0  0  0  0  0  0
   21.4986   25.2080   13.4375 O   0  0  0  0  0  0  0  0  0  0  0  0
   23.3900   26.2338   12.6885 N   0  0  0  0  0  0  0  0  0  0  0  0
  1  2  2  0
  2  3  1  0
  3  4  1  0
  4  5  1  1
  5  6  1  0
  6  7  1  0
  7  8  1  0
  8  9  1  0
  9 10  1  0
 10 11  2  0
 11 12  1  0
 12 13  2  0
 13 14  1  0
 14 15  2  0
 15 16  1  0
 16 17  2  0
  8 18  1  0
 18 19  1  0
  4 20  1  0
 20 21  2  0
 20 22  1  0
 22  2  1  0
 19  5  1  0
 17  9  1  0
 17 12  1  0
M  END
>  <ref_pdb>  (394) 
A4708a

>  <subsites>  (394) 
1 - Active Site,5 - A3181/A/202/1

>  <HIPPO Compound ID>  (394) 
46327

>  <energy_score>  (394) 
-39.686356

>  <fragmenstein_mode>  (394) 
expansion

>  <scratch_subdir>  (394) 
/opt/xchem-fragalysis-2/maxwin/BulkDock/SCRATCH/511248/C54664-P441

>  <smiles>  (394) 
O=C1C[C@H](N2CCC(n3ncc4ccccc43)CC2)C(=O)N1

>  <alias>  (394) 
C54664-P441

>  <ref_mols>  (394) 
A4708a,A3181b

>  <inspiration_score>  (394) 
None

>  <tags>  (394) 
BulkDock Fragalysis export,fragmenstein_placed,openbind_a71ev2a_c1_scaffolds,openbind_a71ev2a_c1_knitwork_pure

>  <fragmenstein_outcome>  (394) 
acceptable

>  <fragmenstein_error>  (394) 


>  <distance_score>  (394) 
0.548648

>  <inchikey>  (394) 
UEVJLQLOPDVOAR-UHFFFAOYSA-N

>  <name>  (394) 
C54664-P441

>  <HIPPO Pose ID>  (394) 
302339

>  <Energy>  (394) 
12.055538

>  <exports>  (394) 
['/opt/xchem-fragalysis-2/maxwin/BulkDock/OUTPUTS/openbind_a71ev2a_c1_knitwork_pure_165VWF8.sdf', '/opt/xchem-fragalysis-2/maxwin/BulkDock/OUTPUTS/openbind_a71ev2a_c1_knitwork_pure_1B07PTU.sdf', '/opt/xchem-fragalysis-2/maxwin/BulkDock/OUTPUTS/openbind_a71ev2a_c1_knitwork_pure_1B07UWE.sdf', '/opt/xchem-fragalysis-2/maxwin/openbind-hippo/a71ev2a/openbind_a71ev2a_c1_scaffold_products.sdf', '/opt/xchem-fragalysis-2/maxwin/openbind-hippo/a71ev2a/cycle_01/bulkdock/openbind_a71ev2a_c1_scaffold_products.sdf', '/opt/xchem-fragalysis-2/maxwin/openbind-hippo/a71ev2a/cycle_01/bulkdock/openbind_a71ev2a_c1_scaffolds.sdf']

>  <fragmenstein_runtime>  (394) 
1.933177

$$$$
C127359-P20
     RDKit          3D

 16 17  0  0  0  0  0  0  0  0999 V2000
   13.5339   25.4173   26.8049 O   0  0  0  0  0  0  0  0  0  0  0  0
   13.6661   24.4667   27.5721 C   0  0  0  0  0  0  0  0  0  0  0  0
   12.9673   24.5226   28.8812 C   0  0  0  0  0  0  0  0  0  0  0  0
   13.1081   23.5277   29.7608 C   0  0  0  0  0  0  0  0  0  0  0  0
   13.9446   22.4017   29.4493 C   0  0  0  0  0  0  0  0  0  0  0  0
   14.5762   22.3080   28.2659 C   0  0  0  0  0  0  0  0  0  0  0  0
   15.6576   20.7963   27.9624 Br  0  0  0  0  0  0  0  0  0  0  0  0
   14.4276   23.3226   27.3122 N   0  0  0  0  0  0  0  0  0  0  0  0
   15.0606   23.2284   25.9940 C   0  0  0  0  0  0  0  0  0  0  0  0
   14.3326   22.3232   24.9848 C   0  0  0  0  0  0  0  0  0  0  0  0
   13.0809   23.2041   24.0046 S   0  0  0  0  0  0  0  0  0  0  0  0
   11.5023   22.7228   24.7707 C   0  0  2  0  0  0  0  0  0  0  0  0
   10.6588   23.9410   25.0744 C   0  0  0  0  0  0  0  0  0  0  0  0
    9.5522   23.3357   25.9041 C   0  0  0  0  0  0  0  0  0  0  0  0
   10.1593   22.3048   26.6887 O   0  0  0  0  0  0  0  0  0  0  0  0
   11.3856   21.9067   26.0441 C   0  0  0  0  0  0  0  0  0  0  0  0
  1  2  2  0
  2  3  1  0
  3  4  2  0
  4  5  1  0
  5  6  2  0
  6  7  1  0
  6  8  1  0
  8  9  1  0
  9 10  1  0
 10 11  1  0
 12 11  1  1
 12 13  1  0
 13 14  1  0
 14 15  1  0
 15 16  1  0
  8  2  1  0
 16 12  1  0
M  END
>  <ref_pdb>  (395) 
A0525a

>  <subsites>  (395) 
1 - Active Site,4 - A0525/A/246/1

>  <HIPPO Compound ID>  (395) 
97204

>  <energy_score>  (395) 
-40.891706

>  <fragmenstein_mode>  (395) 
expansion

>  <scratch_subdir>  (395) 
/opt/xchem-fragalysis-2/maxwin/BulkDock/SCRATCH/511248/C127359-P20

>  <smiles>  (395) 
O=c1cccc(Br)n1CCS[C@@H]1CCOC1

>  <alias>  (395) 
C127359-P20

>  <ref_mols>  (395) 
A0525a,A3178a

>  <inspiration_score>  (395) 
None

>  <tags>  (395) 
BulkDock Fragalysis export,fragmenstein_placed,openbind_a71ev2a_c1_scaffolds,openbind_a71ev2a_c1_knitwork_pure

>  <fragmenstein_outcome>  (395) 
acceptable

>  <fragmenstein_error>  (395) 


>  <distance_score>  (395) 
0.819382

>  <inchikey>  (395) 
FNHYNFVWJDXWDE-UHFFFAOYSA-N

>  <name>  (395) 
C127359-P20

>  <HIPPO Pose ID>  (395) 
304813

>  <Energy>  (395) 
28.34724

>  <exports>  (395) 
['/opt/xchem-fragalysis-2/maxwin/BulkDock/OUTPUTS/openbind_a71ev2a_c1_knitwork_pure_165VWF8.sdf', '/opt/xchem-fragalysis-2/maxwin/BulkDock/OUTPUTS/openbind_a71ev2a_c1_knitwork_pure_1B07PTU.sdf', '/opt/xchem-fragalysis-2/maxwin/BulkDock/OUTPUTS/openbind_a71ev2a_c1_knitwork_pure_1B07UWE.sdf', '/opt/xchem-fragalysis-2/maxwin/openbind-hippo/a71ev2a/openbind_a71ev2a_c1_scaffold_products.sdf', '/opt/xchem-fragalysis-2/maxwin/openbind-hippo/a71ev2a/cycle_01/bulkdock/openbind_a71ev2a_c1_scaffold_products.sdf', '/opt/xchem-fragalysis-2/maxwin/openbind-hippo/a71ev2a/cycle_01/bulkdock/openbind_a71ev2a_c1_scaffolds.sdf']

>  <fragmenstein_runtime>  (395) 
2.122704

$$$$
C52374-P354
     RDKit          3D

 23 25  0  0  0  0  0  0  0  0999 V2000
    8.1623   10.7063   24.5162 C   0  0  0  0  0  0  0  0  0  0  0  0
    7.3681    9.9467   25.3687 C   0  0  0  0  0  0  0  0  0  0  0  0
    6.5591   10.5564   26.3307 C   0  0  0  0  0  0  0  0  0  0  0  0
    6.5312   11.9514   26.4471 C   0  0  0  0  0  0  0  0  0  0  0  0
    5.7108   12.5999   27.5419 C   0  0  0  0  0  0  0  0  0  0  0  0
    5.5679   14.0104   27.3604 O   0  0  0  0  0  0  0  0  0  0  0  0
    6.5402   14.8128   28.0455 C   0  0  0  0  0  0  0  0  0  0  0  0
    6.7074   16.0935   27.2310 C   0  0  0  0  0  0  0  0  0  0  0  0
    7.5765   17.1910   27.8636 C   0  0  0  0  0  0  0  0  0  0  0  0
    7.0888   17.8177   29.1061 N   0  0  0  0  0  0  0  0  0  0  0  0
    5.6469   18.0957   29.1075 C   0  0  0  0  0  0  0  0  0  0  0  0
    5.2408   19.1421   28.0774 C   0  0  0  0  0  0  0  0  0  0  0  0
    5.9569   20.4572   28.3314 C   0  0  0  0  0  0  0  0  0  0  0  0
    7.4848   20.2988   28.4749 C   0  0  1  0  0  0  0  0  0  0  0  0
    7.9980   21.6212   28.8927 N   0  0  0  0  0  0  0  0  0  0  0  0
    7.9469   22.6100   27.7866 C   0  0  0  0  0  0  0  0  0  0  0  0
    9.0403   23.6923   27.8520 C   0  0  0  0  0  0  0  0  0  0  0  0
   10.3977   23.1380   27.9015 N   0  0  0  0  0  0  0  0  0  0  0  0
   10.4764   21.9341   28.7381 C   0  0  0  0  0  0  0  0  0  0  0  0
    9.2585   21.6839   29.6306 C   0  0  0  0  0  0  0  0  0  0  0  0
    7.8117   19.0823   29.4081 C   0  0  0  0  0  0  0  0  0  0  0  0
    7.2992   12.7018   25.5429 C   0  0  0  0  0  0  0  0  0  0  0  0
    8.1183   12.0892   24.5945 C   0  0  0  0  0  0  0  0  0  0  0  0
  1  2  2  0
  2  3  1  0
  3  4  2  0
  4  5  1  0
  5  6  1  0
  6  7  1  0
  7  8  1  0
  8  9  1  0
  9 10  1  0
 10 11  1  0
 11 12  1  0
 12 13  1  0
 13 14  1  0
 14 15  1  1
 15 16  1  0
 16 17  1  0
 17 18  1  0
 18 19  1  0
 19 20  1  0
 14 21  1  0
  4 22  1  0
 22 23  2  0
 23  1  1  0
 21 10  1  0
 20 15  1  0
M  END
>  <ref_pdb>  (396) 
A4415a

>  <subsites>  (396) 
1 - Active Site,4 - A0525/A/246/1

>  <HIPPO Compound ID>  (396) 
49818

>  <energy_score>  (396) 
-51.163987

>  <fragmenstein_mode>  (396) 
expansion

>  <scratch_subdir>  (396) 
/opt/xchem-fragalysis-2/maxwin/BulkDock/SCRATCH/511248/C52374-P354

>  <smiles>  (396) 
c1ccc(COCCCN2CCC[C@@H](N3CCNCC3)C2)cc1

>  <alias>  (396) 
C52374-P354

>  <ref_mols>  (396) 
A4415a,A0469a

>  <inspiration_score>  (396) 
None

>  <tags>  (396) 
BulkDock Fragalysis export,fragmenstein_placed,openbind_a71ev2a_c1_scaffolds,openbind_a71ev2a_c1_knitwork_pure

>  <fragmenstein_outcome>  (396) 
acceptable

>  <fragmenstein_error>  (396) 


>  <distance_score>  (396) 
0.985715

>  <inchikey>  (396) 
OLDSNDJYHCNLFD-UHFFFAOYSA-N

>  <name>  (396) 
C52374-P354

>  <HIPPO Pose ID>  (396) 
304888

>  <Energy>  (396) 
139.322141

>  <exports>  (396) 
['/opt/xchem-fragalysis-2/maxwin/BulkDock/OUTPUTS/openbind_a71ev2a_c1_knitwork_pure_165VWF8.sdf', '/opt/xchem-fragalysis-2/maxwin/BulkDock/OUTPUTS/openbind_a71ev2a_c1_knitwork_pure_1B07PTU.sdf', '/opt/xchem-fragalysis-2/maxwin/BulkDock/OUTPUTS/openbind_a71ev2a_c1_knitwork_pure_1B07UWE.sdf', '/opt/xchem-fragalysis-2/maxwin/openbind-hippo/a71ev2a/openbind_a71ev2a_c1_scaffold_products.sdf', '/opt/xchem-fragalysis-2/maxwin/openbind-hippo/a71ev2a/cycle_01/bulkdock/openbind_a71ev2a_c1_scaffold_products.sdf', '/opt/xchem-fragalysis-2/maxwin/openbind-hippo/a71ev2a/cycle_01/bulkdock/openbind_a71ev2a_c1_scaffolds.sdf']

>  <fragmenstein_runtime>  (396) 
5.321716

$$$$
C52375-P354
     RDKit          3D

 23 25  0  0  0  0  0  0  0  0999 V2000
    7.9050   11.3126   24.5568 C   0  0  0  0  0  0  0  0  0  0  0  0
    7.9887   12.7473   25.0359 C   0  0  0  0  0  0  0  0  0  0  0  0
    6.7240   13.1686   25.7723 C   0  0  0  0  0  0  0  0  0  0  0  0
    6.2947   12.1220   26.8006 C   0  0  1  0  0  0  0  0  0  0  0  0
    5.0096   12.5137   27.5463 C   0  0  0  0  0  0  0  0  0  0  0  0
    5.0084   13.8637   28.0229 O   0  0  0  0  0  0  0  0  0  0  0  0
    5.8307   14.0954   29.1621 C   0  0  0  0  0  0  0  0  0  0  0  0
    5.9782   15.6050   29.3918 C   0  0  0  0  0  0  0  0  0  0  0  0
    6.5955   16.2915   28.1651 C   0  0  0  0  0  0  0  0  0  0  0  0
    6.9699   17.7016   28.2921 N   0  0  0  0  0  0  0  0  0  0  0  0
    5.8591   18.5953   28.6161 C   0  0  0  0  0  0  0  0  0  0  0  0
    6.2748   20.0503   28.3918 C   0  0  0  0  0  0  0  0  0  0  0  0
    7.5594   20.4127   29.1681 C   0  0  0  0  0  0  0  0  0  0  0  0
    7.9725   21.8165   28.9711 N   0  0  0  0  0  0  0  0  0  0  0  0
    7.8921   22.3190   27.5896 C   0  0  0  0  0  0  0  0  0  0  0  0
    8.7419   23.5791   27.3304 C   0  0  0  0  0  0  0  0  0  0  0  0
   10.1676   23.4217   27.6442 N   0  0  0  0  0  0  0  0  0  0  0  0
   10.4019   22.3982   28.6686 C   0  0  0  0  0  0  0  0  0  0  0  0
    9.2196   22.2147   29.6396 C   0  0  0  0  0  0  0  0  0  0  0  0
    8.6517   19.3634   28.8919 C   0  0  0  0  0  0  0  0  0  0  0  0
    8.1289   17.9459   29.1389 C   0  0  0  0  0  0  0  0  0  0  0  0
    6.1018   10.8504   26.1744 O   0  0  0  0  0  0  0  0  0  0  0  0
    7.2898   10.3588   25.5635 C   0  0  0  0  0  0  0  0  0  0  0  0
  1  2  1  0
  2  3  1  0
  3  4  1  0
  4  5  1  6
  5  6  1  0
  6  7  1  0
  7  8  1  0
  8  9  1  0
  9 10  1  0
 10 11  1  0
 11 12  1  0
 12 13  1  0
 13 14  1  0
 14 15  1  0
 15 16  1  0
 16 17  1  0
 17 18  1  0
 18 19  1  0
 13 20  1  0
 20 21  1  0
  4 22  1  0
 22 23  1  0
 23  1  1  0
 21 10  1  0
 19 14  1  0
M  END
>  <ref_pdb>  (397) 
A4415a

>  <subsites>  (397) 
1 - Active Site,4 - A0525/A/246/1

>  <HIPPO Compound ID>  (397) 
9529

>  <energy_score>  (397) 
-69.415423

>  <fragmenstein_mode>  (397) 
expansion

>  <scratch_subdir>  (397) 
/opt/xchem-fragalysis-2/maxwin/BulkDock/SCRATCH/511248/C52375-P354

>  <smiles>  (397) 
C1CC[C@@H](COCCCN2CCC(N3CCNCC3)CC2)OC1

>  <alias>  (397) 
C52375-P354

>  <ref_mols>  (397) 
A4415a,A0469a

>  <inspiration_score>  (397) 
None

>  <tags>  (397) 
BulkDock Fragalysis export,fragmenstein_placed,openbind_a71ev2a_c1_scaffolds,openbind_a71ev2a_c1_knitwork_pure

>  <fragmenstein_outcome>  (397) 
acceptable

>  <fragmenstein_error>  (397) 


>  <distance_score>  (397) 
0.985505

>  <inchikey>  (397) 
PEDGVMFOGXYVTC-UHFFFAOYSA-N

>  <name>  (397) 
C52375-P354

>  <HIPPO Pose ID>  (397) 
304889

>  <Energy>  (397) 
112.467205

>  <exports>  (397) 
['/opt/xchem-fragalysis-2/maxwin/BulkDock/OUTPUTS/openbind_a71ev2a_c1_knitwork_pure_165VWF8.sdf', '/opt/xchem-fragalysis-2/maxwin/BulkDock/OUTPUTS/openbind_a71ev2a_c1_knitwork_pure_1B07PTU.sdf', '/opt/xchem-fragalysis-2/maxwin/BulkDock/OUTPUTS/openbind_a71ev2a_c1_knitwork_pure_1B07UWE.sdf', '/opt/xchem-fragalysis-2/maxwin/openbind-hippo/a71ev2a/openbind_a71ev2a_c1_scaffold_products.sdf', '/opt/xchem-fragalysis-2/maxwin/openbind-hippo/a71ev2a/cycle_01/bulkdock/openbind_a71ev2a_c1_scaffold_products.sdf', '/opt/xchem-fragalysis-2/maxwin/openbind-hippo/a71ev2a/cycle_01/bulkdock/openbind_a71ev2a_c1_scaffolds.sdf']

>  <fragmenstein_runtime>  (397) 
4.666555

$$$$
C59022-P93
     RDKit          3D

 20 22  0  0  0  0  0  0  0  0999 V2000
    4.3044   15.1610   23.2399 O   0  0  0  0  0  0  0  0  0  0  0  0
    4.6303   14.7427   22.2004 C   0  0  0  0  0  0  0  0  0  0  0  0
    6.0295   14.3698   21.6665 N   0  0  0  0  0  0  0  0  0  0  0  0
    7.3054   14.3434   22.3283 C   0  0  1  0  0  0  0  0  0  0  0  0
    8.3499   15.1844   21.5969 C   0  0  0  0  0  0  0  0  0  0  0  0
    9.7365   14.9156   22.1737 C   0  0  0  0  0  0  0  0  0  0  0  0
    9.7669   14.9532   23.7083 C   0  0  0  0  0  0  0  0  0  0  0  0
    8.6503   14.2985   24.4073 N   0  0  0  0  0  0  0  0  0  0  0  0
    8.8516   12.8663   24.7128 C   0  0  0  0  0  0  0  0  0  0  0  0
    9.6584   12.0310   23.6995 C   0  0  0  0  0  0  0  0  0  0  0  0
    9.7384   10.5538   24.0579 C   0  0  0  0  0  0  0  0  0  0  0  0
    8.4621   10.0160   24.3631 O   0  0  0  0  0  0  0  0  0  0  0  0
    7.8366   10.7064   25.4253 C   0  0  0  0  0  0  0  0  0  0  0  0
    7.5471   12.1413   25.0780 C   0  0  0  0  0  0  0  0  0  0  0  0
    7.3519   14.6946   23.8176 C   0  0  0  0  0  0  0  0  0  0  0  0
    3.6815   14.5127   21.0934 C   0  0  0  0  0  0  0  0  0  0  0  0
    2.5741   15.1859   20.8271 N   0  0  0  0  0  0  0  0  0  0  0  0
    2.1156   14.6227   19.6568 C   0  0  0  0  0  0  0  0  0  0  0  0
    2.9849   13.6520   19.2301 C   0  0  0  0  0  0  0  0  0  0  0  0
    4.0072   13.5821   20.1256 O   0  0  0  0  0  0  0  0  0  0  0  0
  1  2  2  0
  2  3  1  0
  4  3  1  6
  4  5  1  0
  5  6  1  0
  6  7  1  0
  7  8  1  0
  8  9  1  0
  9 10  1  0
 10 11  1  0
 11 12  1  0
 12 13  1  0
 13 14  1  0
  8 15  1  0
  2 16  1  0
 16 17  2  0
 17 18  1  0
 18 19  2  0
 19 20  1  0
 15  4  1  0
 20 16  1  0
 14  9  1  0
M  END
>  <ref_pdb>  (398) 
A0926a

>  <subsites>  (398) 
1 - Active Site

>  <HIPPO Compound ID>  (398) 
59022

>  <energy_score>  (398) 
-18.003652

>  <fragmenstein_mode>  (398) 
expansion

>  <scratch_subdir>  (398) 
/opt/xchem-fragalysis-2/maxwin/BulkDock/SCRATCH/511250/C59022-P93

>  <smiles>  (398) 
O=C(N[C@H]1CCCN(C2CCOCC2)C1)c1ncco1

>  <alias>  (398) 
C59022-P93

>  <ref_mols>  (398) 
A3623a,A0926a

>  <inspiration_score>  (398) 
None

>  <tags>  (398) 
BulkDock Fragalysis export,fragmenstein_placed,openbind_a71ev2a_c1_scaffolds,openbind_a71ev2a_c1_knitwork_pure

>  <fragmenstein_outcome>  (398) 
acceptable

>  <fragmenstein_error>  (398) 


>  <distance_score>  (398) 
0.820828

>  <inchikey>  (398) 
BFNJPRDSFVMZDA-UHFFFAOYSA-N

>  <name>  (398) 
C59022-P93

>  <HIPPO Pose ID>  (398) 
306234

>  <Energy>  (398) 
97.008133

>  <exports>  (398) 
['/opt/xchem-fragalysis-2/maxwin/BulkDock/OUTPUTS/openbind_a71ev2a_c1_knitwork_pure_165VWF8.sdf', '/opt/xchem-fragalysis-2/maxwin/BulkDock/OUTPUTS/openbind_a71ev2a_c1_knitwork_pure_1B07PTU.sdf', '/opt/xchem-fragalysis-2/maxwin/BulkDock/OUTPUTS/openbind_a71ev2a_c1_knitwork_pure_1B07UWE.sdf', '/opt/xchem-fragalysis-2/maxwin/openbind-hippo/a71ev2a/openbind_a71ev2a_c1_scaffold_products.sdf', '/opt/xchem-fragalysis-2/maxwin/openbind-hippo/a71ev2a/cycle_01/bulkdock/openbind_a71ev2a_c1_scaffold_products.sdf', '/opt/xchem-fragalysis-2/maxwin/openbind-hippo/a71ev2a/cycle_01/bulkdock/openbind_a71ev2a_c1_scaffolds.sdf']

>  <fragmenstein_runtime>  (398) 
10.69652

$$$$
C10281-P310
     RDKit          3D

 11 12  0  0  0  0  0  0  0  0999 V2000
    8.0254   11.2959   25.2537 C   0  0  0  0  0  0  0  0  0  0  0  0
    7.3429   12.0790   26.1740 C   0  0  0  0  0  0  0  0  0  0  0  0
    6.3225   11.5149   26.9380 C   0  0  0  0  0  0  0  0  0  0  0  0
    5.9651   10.1876   26.7148 C   0  0  0  0  0  0  0  0  0  0  0  0
    4.8766    9.6449   27.4749 N   0  0  0  0  0  0  0  0  0  0  0  0
    4.1260    8.5275   27.1763 C   0  0  0  0  0  0  0  0  0  0  0  0
    3.1974    8.3694   28.1752 C   0  0  0  0  0  0  0  0  0  0  0  0
    3.4202    9.4570   29.0282 C   0  0  0  0  0  0  0  0  0  0  0  0
    4.4023   10.2534   28.6018 N   0  0  0  0  0  0  0  0  0  0  0  0
    6.5982    9.4150   25.7847 N   0  0  0  0  0  0  0  0  0  0  0  0
    7.6337    9.9786   25.1093 C   0  0  0  0  0  0  0  0  0  0  0  0
  1  2  2  0
  2  3  1  0
  3  4  2  0
  4  5  1  0
  5  6  1  0
  6  7  2  0
  7  8  1  0
  8  9  2  0
  4 10  1  0
 10 11  2  0
 11  1  1  0
  9  5  1  0
M  END
>  <ref_pdb>  (399) 
A4333a

>  <subsites>  (399) 
1 - Active Site

>  <HIPPO Compound ID>  (399) 
48646

>  <energy_score>  (399) 
-25.866788

>  <fragmenstein_mode>  (399) 
expansion

>  <scratch_subdir>  (399) 
/opt/xchem-fragalysis-2/maxwin/BulkDock/SCRATCH/511253/C10281-P310

>  <smiles>  (399) 
c1ccc(-n2cccn2)nc1

>  <alias>  (399) 
C10281-P310

>  <ref_mols>  (399) 
A0556a,A4333a

>  <inspiration_score>  (399) 
None

>  <tags>  (399) 
BulkDock Fragalysis export,fragmenstein_placed,openbind_a71ev2a_c1_scaffolds,openbind_a71ev2a_c1_knitwork_pure

>  <fragmenstein_outcome>  (399) 
acceptable

>  <fragmenstein_error>  (399) 


>  <distance_score>  (399) 
0.93689

>  <inchikey>  (399) 
LKENARBUOFSVNC-UHFFFAOYSA-N

>  <name>  (399) 
C10281-P310

>  <HIPPO Pose ID>  (399) 
307196

>  <Energy>  (399) 
62.961353

>  <exports>  (399) 
['/opt/xchem-fragalysis-2/maxwin/BulkDock/OUTPUTS/openbind_a71ev2a_c1_knitwork_pure_165VWF8.sdf', '/opt/xchem-fragalysis-2/maxwin/BulkDock/OUTPUTS/openbind_a71ev2a_c1_knitwork_pure_1B07PTU.sdf', '/opt/xchem-fragalysis-2/maxwin/BulkDock/OUTPUTS/openbind_a71ev2a_c1_knitwork_pure_1B07UWE.sdf', '/opt/xchem-fragalysis-2/maxwin/openbind-hippo/a71ev2a/openbind_a71ev2a_c1_scaffold_products.sdf', '/opt/xchem-fragalysis-2/maxwin/openbind-hippo/a71ev2a/cycle_01/bulkdock/openbind_a71ev2a_c1_scaffold_products.sdf', '/opt/xchem-fragalysis-2/maxwin/openbind-hippo/a71ev2a/cycle_01/bulkdock/openbind_a71ev2a_c1_scaffolds.sdf']

>  <fragmenstein_runtime>  (399) 
0.726484

$$$$
C63652-P310
     RDKit          3D

 20 21  0  0  0  0  0  0  0  0999 V2000
    7.4973   13.7841   23.3330 C   0  0  0  0  0  0  0  0  0  0  0  0
    8.7647   13.6130   24.0523 N   0  0  0  0  0  0  0  0  0  0  0  0
    9.8360   14.0879   23.1506 C   0  0  0  0  0  0  0  0  0  0  0  0
   11.0983   14.6064   23.8436 C   0  0  0  0  0  0  0  0  0  0  0  0
   12.2051   14.7155   22.9415 O   0  0  0  0  0  0  0  0  0  0  0  0
   12.0045   15.6299   21.8550 C   0  0  0  0  0  0  0  0  0  0  0  0
   11.5839   14.9232   20.5618 C   0  0  0  0  0  0  0  0  0  0  0  0
   11.1354   15.8459   19.5798 O   0  0  0  0  0  0  0  0  0  0  0  0
    9.0174   12.1975   24.4081 C   0  0  0  0  0  0  0  0  0  0  0  0
    7.9662   11.5150   25.2558 C   0  0  0  0  0  0  0  0  0  0  0  0
    7.2725   12.1488   26.2874 C   0  0  0  0  0  0  0  0  0  0  0  0
    6.2885   11.4619   27.0077 C   0  0  0  0  0  0  0  0  0  0  0  0
    5.9893   10.1480   26.6593 C   0  0  0  0  0  0  0  0  0  0  0  0
    4.9179    9.4693   27.3350 N   0  0  0  0  0  0  0  0  0  0  0  0
    4.4327    9.7111   28.6092 C   0  0  0  0  0  0  0  0  0  0  0  0
    3.4636    8.7681   28.8606 C   0  0  0  0  0  0  0  0  0  0  0  0
    3.3774    8.0281   27.6745 C   0  0  0  0  0  0  0  0  0  0  0  0
    4.1678    8.5106   26.7159 N   0  0  0  0  0  0  0  0  0  0  0  0
    6.6752    9.4977   25.6796 N   0  0  0  0  0  0  0  0  0  0  0  0
    7.6578   10.1779   25.0349 C   0  0  0  0  0  0  0  0  0  0  0  0
  1  2  1  0
  2  3  1  0
  3  4  1  0
  4  5  1  0
  5  6  1  0
  6  7  1  0
  7  8  1  0
  2  9  1  0
  9 10  1  0
 10 11  2  0
 11 12  1  0
 12 13  2  0
 13 14  1  0
 14 15  1  0
 15 16  2  0
 16 17  1  0
 17 18  2  0
 13 19  1  0
 19 20  2  0
 20 10  1  0
 18 14  1  0
M  END
>  <ref_pdb>  (400) 
A4333a

>  <subsites>  (400) 
1 - Active Site

>  <HIPPO Compound ID>  (400) 
80825

>  <energy_score>  (400) 
-22.600346

>  <fragmenstein_mode>  (400) 
expansion

>  <scratch_subdir>  (400) 
/opt/xchem-fragalysis-2/maxwin/BulkDock/SCRATCH/511253/C63652-P310

>  <smiles>  (400) 
CN(CCOCCO)Cc1ccc(-n2cccn2)nc1

>  <alias>  (400) 
C63652-P310

>  <ref_mols>  (400) 
A0556a,A4333a

>  <inspiration_score>  (400) 
None

>  <tags>  (400) 
BulkDock Fragalysis export,fragmenstein_placed,openbind_a71ev2a_c1_scaffolds,openbind_a71ev2a_c1_knitwork_pure

>  <fragmenstein_outcome>  (400) 
acceptable

>  <fragmenstein_error>  (400) 


>  <distance_score>  (400) 
0.830779

>  <inchikey>  (400) 
AQAKSQZHWPPYOI-UHFFFAOYSA-N

>  <name>  (400) 
C63652-P310

>  <HIPPO Pose ID>  (400) 
307222

>  <Energy>  (400) 
133.24209

>  <exports>  (400) 
['/opt/xchem-fragalysis-2/maxwin/BulkDock/OUTPUTS/openbind_a71ev2a_c1_knitwork_pure_165VWF8.sdf', '/opt/xchem-fragalysis-2/maxwin/BulkDock/OUTPUTS/openbind_a71ev2a_c1_knitwork_pure_1B07PTU.sdf', '/opt/xchem-fragalysis-2/maxwin/BulkDock/OUTPUTS/openbind_a71ev2a_c1_knitwork_pure_1B07UWE.sdf', '/opt/xchem-fragalysis-2/maxwin/openbind-hippo/a71ev2a/openbind_a71ev2a_c1_scaffold_products.sdf', '/opt/xchem-fragalysis-2/maxwin/openbind-hippo/a71ev2a/cycle_01/bulkdock/openbind_a71ev2a_c1_scaffold_products.sdf', '/opt/xchem-fragalysis-2/maxwin/openbind-hippo/a71ev2a/cycle_01/bulkdock/openbind_a71ev2a_c1_scaffolds.sdf']

>  <fragmenstein_runtime>  (400) 
2.865066

$$$$
C3732-P310
     RDKit          3D

 11 12  0  0  0  0  0  0  0  0999 V2000
    8.0435   11.3603   25.1116 C   0  0  0  0  0  0  0  0  0  0  0  0
    7.2827   12.1942   25.9203 C   0  0  0  0  0  0  0  0  0  0  0  0
    6.2786   11.6500   26.7204 C   0  0  0  0  0  0  0  0  0  0  0  0
    6.0487   10.2811   26.6734 C   0  0  0  0  0  0  0  0  0  0  0  0
    5.0443    9.6752   27.5321 C   0  0  0  0  0  0  0  0  0  0  0  0
    4.6689    9.9609   28.8637 C   0  0  0  0  0  0  0  0  0  0  0  0
    3.7203    9.1421   29.3277 N   0  0  0  0  0  0  0  0  0  0  0  0
    3.5401    8.2760   28.3168 N   0  0  0  0  0  0  0  0  0  0  0  0
    4.2323    8.6139   27.1919 C   0  0  0  0  0  0  0  0  0  0  0  0
    6.7638    9.4550   25.8665 N   0  0  0  0  0  0  0  0  0  0  0  0
    7.7520   10.0093   25.1203 C   0  0  0  0  0  0  0  0  0  0  0  0
  1  2  2  0
  2  3  1  0
  3  4  2  0
  4  5  1  0
  5  6  1  0
  6  7  2  0
  7  8  1  0
  8  9  1  0
  4 10  1  0
 10 11  2  0
 11  1  1  0
  9  5  2  0
M  END
>  <ref_pdb>  (401) 
A4333a

>  <subsites>  (401) 
1 - Active Site

>  <HIPPO Compound ID>  (401) 
47453

>  <energy_score>  (401) 
-11.219788

>  <fragmenstein_mode>  (401) 
expansion

>  <scratch_subdir>  (401) 
/opt/xchem-fragalysis-2/maxwin/BulkDock/SCRATCH/511253/C3732-P310

>  <smiles>  (401) 
c1ccc(-c2cn[nH]c2)nc1

>  <alias>  (401) 
C3732-P310

>  <ref_mols>  (401) 
A0556a,A4333a

>  <inspiration_score>  (401) 
None

>  <tags>  (401) 
BulkDock Fragalysis export,fragmenstein_placed,openbind_a71ev2a_c1_scaffolds,openbind_a71ev2a_c1_knitwork_pure

>  <fragmenstein_outcome>  (401) 
acceptable

>  <fragmenstein_error>  (401) 


>  <distance_score>  (401) 
0.835148

>  <inchikey>  (401) 
DIPNTWZPFZFZLY-UHFFFAOYSA-N

>  <name>  (401) 
C3732-P310

>  <HIPPO Pose ID>  (401) 
307224

>  <Energy>  (401) 
28.864618

>  <exports>  (401) 
['/opt/xchem-fragalysis-2/maxwin/BulkDock/OUTPUTS/openbind_a71ev2a_c1_knitwork_pure_165VWF8.sdf', '/opt/xchem-fragalysis-2/maxwin/BulkDock/OUTPUTS/openbind_a71ev2a_c1_knitwork_pure_1B07PTU.sdf', '/opt/xchem-fragalysis-2/maxwin/BulkDock/OUTPUTS/openbind_a71ev2a_c1_knitwork_pure_1B07UWE.sdf', '/opt/xchem-fragalysis-2/maxwin/openbind-hippo/a71ev2a/openbind_a71ev2a_c1_scaffold_products.sdf', '/opt/xchem-fragalysis-2/maxwin/openbind-hippo/a71ev2a/cycle_01/bulkdock/openbind_a71ev2a_c1_scaffold_products.sdf', '/opt/xchem-fragalysis-2/maxwin/openbind-hippo/a71ev2a/cycle_01/bulkdock/openbind_a71ev2a_c1_scaffolds.sdf']

>  <fragmenstein_runtime>  (401) 
0.743317

$$$$
C3689-P310
     RDKit          3D

 11 12  0  0  0  0  0  0  0  0999 V2000
    8.0731   11.3299   25.1086 C   0  0  0  0  0  0  0  0  0  0  0  0
    7.3027   12.1813   25.8891 C   0  0  0  0  0  0  0  0  0  0  0  0
    6.2799   11.6561   26.6781 C   0  0  0  0  0  0  0  0  0  0  0  0
    6.0484   10.2870   26.6536 C   0  0  0  0  0  0  0  0  0  0  0  0
    5.0041    9.6664   27.4619 C   0  0  0  0  0  0  0  0  0  0  0  0
    4.1653    8.5928   27.2257 C   0  0  0  0  0  0  0  0  0  0  0  0
    3.3978    8.4409   28.3920 C   0  0  0  0  0  0  0  0  0  0  0  0
    3.6808    9.3751   29.3000 N   0  0  0  0  0  0  0  0  0  0  0  0
    4.6904   10.0601   28.7367 N   0  0  0  0  0  0  0  0  0  0  0  0
    6.7716    9.4450   25.8775 N   0  0  0  0  0  0  0  0  0  0  0  0
    7.7738    9.9810   25.1359 C   0  0  0  0  0  0  0  0  0  0  0  0
  1  2  2  0
  2  3  1  0
  3  4  2  0
  4  5  1  0
  5  6  2  0
  6  7  1  0
  7  8  2  0
  8  9  1  0
  4 10  1  0
 10 11  2  0
 11  1  1  0
  9  5  1  0
M  END
>  <ref_pdb>  (402) 
A4333a

>  <subsites>  (402) 
1 - Active Site

>  <HIPPO Compound ID>  (402) 
105126

>  <energy_score>  (402) 
-6.141823

>  <fragmenstein_mode>  (402) 
expansion

>  <scratch_subdir>  (402) 
/opt/xchem-fragalysis-2/maxwin/BulkDock/SCRATCH/511253/C3689-P310

>  <smiles>  (402) 
c1ccc(-c2ccn[nH]2)nc1

>  <alias>  (402) 
C3689-P310

>  <ref_mols>  (402) 
A0556a,A4333a

>  <inspiration_score>  (402) 
None

>  <tags>  (402) 
BulkDock Fragalysis export,fragmenstein_placed,openbind_a71ev2a_c1_scaffolds,openbind_a71ev2a_c1_knitwork_pure

>  <fragmenstein_outcome>  (402) 
acceptable

>  <fragmenstein_error>  (402) 


>  <distance_score>  (402) 
0.836422

>  <inchikey>  (402) 
JJKPNZIAVNEQFY-UHFFFAOYSA-N

>  <name>  (402) 
C3689-P310

>  <HIPPO Pose ID>  (402) 
307229

>  <Energy>  (402) 
16.420186

>  <exports>  (402) 
['/opt/xchem-fragalysis-2/maxwin/BulkDock/OUTPUTS/openbind_a71ev2a_c1_knitwork_pure_165VWF8.sdf', '/opt/xchem-fragalysis-2/maxwin/BulkDock/OUTPUTS/openbind_a71ev2a_c1_knitwork_pure_1B07PTU.sdf', '/opt/xchem-fragalysis-2/maxwin/BulkDock/OUTPUTS/openbind_a71ev2a_c1_knitwork_pure_1B07UWE.sdf', '/opt/xchem-fragalysis-2/maxwin/openbind-hippo/a71ev2a/openbind_a71ev2a_c1_scaffold_products.sdf', '/opt/xchem-fragalysis-2/maxwin/openbind-hippo/a71ev2a/cycle_01/bulkdock/openbind_a71ev2a_c1_scaffold_products.sdf', '/opt/xchem-fragalysis-2/maxwin/openbind-hippo/a71ev2a/cycle_01/bulkdock/openbind_a71ev2a_c1_scaffolds.sdf']

>  <fragmenstein_runtime>  (402) 
0.697975

$$$$
C55396-P28
     RDKit          3D

 12 12  0  0  0  0  0  0  0  0999 V2000
    4.7810    8.4056   29.1574 C   0  0  0  0  0  0  0  0  0  0  0  0
    4.3675    9.2027   27.9471 C   0  0  0  0  0  0  0  0  0  0  0  0
    5.4858    9.7404   27.2204 N   0  0  0  0  0  0  0  0  0  0  0  0
    5.9337   11.1928   27.0116 C   0  0  0  0  0  0  0  0  0  0  0  0
    5.5145   12.1834   27.4574 O   0  0  0  0  0  0  0  0  0  0  0  0
    7.0187   11.2665   25.9917 C   0  0  0  0  0  0  0  0  0  0  0  0
    7.4091   12.4668   25.3575 C   0  0  0  0  0  0  0  0  0  0  0  0
    8.3725   12.1294   24.4503 C   0  0  0  0  0  0  0  0  0  0  0  0
    8.9809   12.9287   23.5924 O   0  0  0  0  0  0  0  0  0  0  0  0
    8.5483   10.7739   24.5662 N   0  0  0  0  0  0  0  0  0  0  0  0
    9.3511    9.9267   23.7128 C   0  0  0  0  0  0  0  0  0  0  0  0
    7.7254   10.2156   25.5088 N   0  0  0  0  0  0  0  0  0  0  0  0
  1  2  1  0
  2  3  1  0
  3  4  1  0
  4  5  2  0
  4  6  1  0
  6  7  1  0
  7  8  2  0
  8  9  1  0
  8 10  1  0
 10 11  1  0
 10 12  1  0
 12  6  2  0
M  END
>  <ref_pdb>  (403) 
A0556a

>  <subsites>  (403) 
1 - Active Site

>  <HIPPO Compound ID>  (403) 
55396

>  <energy_score>  (403) 
-9.305657

>  <fragmenstein_mode>  (403) 
expansion

>  <scratch_subdir>  (403) 
/opt/xchem-fragalysis-2/maxwin/BulkDock/SCRATCH/511255/C55396-P28

>  <smiles>  (403) 
CCNC(=O)c1cc(O)n(C)n1

>  <alias>  (403) 
C55396-P28

>  <ref_mols>  (403) 
A0556a,A3435a

>  <inspiration_score>  (403) 
None

>  <tags>  (403) 
BulkDock Fragalysis export,fragmenstein_placed,openbind_a71ev2a_c1_scaffolds,openbind_a71ev2a_c1_knitwork_pure

>  <fragmenstein_outcome>  (403) 
acceptable

>  <fragmenstein_error>  (403) 


>  <distance_score>  (403) 
0.91786

>  <inchikey>  (403) 
XQFDTTICYWSLGR-UHFFFAOYSA-N

>  <name>  (403) 
C55396-P28

>  <HIPPO Pose ID>  (403) 
310919

>  <Energy>  (403) 
44.814919

>  <exports>  (403) 
['/opt/xchem-fragalysis-2/maxwin/BulkDock/OUTPUTS/openbind_a71ev2a_c1_knitwork_pure_165VWF8.sdf', '/opt/xchem-fragalysis-2/maxwin/BulkDock/OUTPUTS/openbind_a71ev2a_c1_knitwork_pure_1B07PTU.sdf', '/opt/xchem-fragalysis-2/maxwin/BulkDock/OUTPUTS/openbind_a71ev2a_c1_knitwork_pure_1B07UWE.sdf', '/opt/xchem-fragalysis-2/maxwin/openbind-hippo/a71ev2a/openbind_a71ev2a_c1_scaffold_products.sdf', '/opt/xchem-fragalysis-2/maxwin/openbind-hippo/a71ev2a/cycle_01/bulkdock/openbind_a71ev2a_c1_scaffold_products.sdf', '/opt/xchem-fragalysis-2/maxwin/openbind-hippo/a71ev2a/cycle_01/bulkdock/openbind_a71ev2a_c1_scaffolds.sdf']

>  <fragmenstein_runtime>  (403) 
1.248582

$$$$
C72721-P564
     RDKit          3D

 18 20  0  0  0  0  0  0  0  0999 V2000
   10.0579   14.6036   25.3954 O   0  0  0  0  0  0  0  0  0  0  0  0
   10.0287   13.8951   24.1340 S   0  0  0  0  0  0  0  0  0  0  0  0
   10.9146   12.7719   23.9242 O   0  0  0  0  0  0  0  0  0  0  0  0
   10.3354   14.9787   22.9031 N   0  0  0  0  0  0  0  0  0  0  0  0
   11.7064   15.4920   22.8874 C   0  0  0  0  0  0  0  0  0  0  0  0
   11.9081   15.9296   21.4663 C   0  0  0  0  0  0  0  0  0  0  0  0
   11.2480   14.8299   20.6825 C   0  0  0  0  0  0  0  0  0  0  0  0
   10.0038   14.5522   21.5085 C   0  0  0  0  0  0  0  0  0  0  0  0
    8.4296   13.5494   23.7223 N   0  0  0  0  0  0  0  0  0  0  0  0
    7.3604   14.4679   24.2143 C   0  0  0  0  0  0  0  0  0  0  0  0
    6.5379   13.6396   25.2345 C   0  0  0  0  0  0  0  0  0  0  0  0
    6.9695   12.2389   24.9399 C   0  0  0  0  0  0  0  0  0  0  0  0
    6.5304   11.0359   25.4504 C   0  0  0  0  0  0  0  0  0  0  0  0
    7.1823    9.8678   25.0264 C   0  0  0  0  0  0  0  0  0  0  0  0
    8.2393    9.9192   24.1094 C   0  0  0  0  0  0  0  0  0  0  0  0
    9.2189    8.4412   23.5207 Br  0  0  0  0  0  0  0  0  0  0  0  0
    8.6577   11.1177   23.5999 C   0  0  0  0  0  0  0  0  0  0  0  0
    8.0365   12.2466   24.0600 C   0  0  0  0  0  0  0  0  0  0  0  0
  1  2  2  0
  2  3  2  0
  2  4  1  0
  4  5  1  0
  5  6  1  0
  6  7  1  0
  7  8  1  0
  2  9  1  0
  9 10  1  0
 10 11  1  0
 11 12  1  0
 12 13  2  0
 13 14  1  0
 14 15  2  0
 15 16  1  0
 15 17  1  0
 17 18  2  0
  8  4  1  0
 18  9  1  0
 18 12  1  0
M  END
>  <ref_pdb>  (404) 
A5091a

>  <subsites>  (404) 
1 - Active Site

>  <HIPPO Compound ID>  (404) 
72721

>  <energy_score>  (404) 
-44.61248

>  <fragmenstein_mode>  (404) 
expansion

>  <scratch_subdir>  (404) 
/opt/xchem-fragalysis-2/maxwin/BulkDock/SCRATCH/511255/C72721-P564

>  <smiles>  (404) 
O=S(=O)(N1CCCC1)N1CCc2ccc(Br)cc21

>  <alias>  (404) 
C72721-P564

>  <ref_mols>  (404) 
A1778a,A5091a

>  <inspiration_score>  (404) 
None

>  <tags>  (404) 
BulkDock Fragalysis export,fragmenstein_placed,openbind_a71ev2a_c1_scaffolds,openbind_a71ev2a_c1_knitwork_pure

>  <fragmenstein_outcome>  (404) 
acceptable

>  <fragmenstein_error>  (404) 


>  <distance_score>  (404) 
0.793288

>  <inchikey>  (404) 
LYKXFHHASTVORN-UHFFFAOYSA-N

>  <name>  (404) 
C72721-P564

>  <HIPPO Pose ID>  (404) 
311005

>  <Energy>  (404) 
-103.027424

>  <exports>  (404) 
['/opt/xchem-fragalysis-2/maxwin/BulkDock/OUTPUTS/openbind_a71ev2a_c1_knitwork_pure_165VWF8.sdf', '/opt/xchem-fragalysis-2/maxwin/BulkDock/OUTPUTS/openbind_a71ev2a_c1_knitwork_pure_1B07PTU.sdf', '/opt/xchem-fragalysis-2/maxwin/BulkDock/OUTPUTS/openbind_a71ev2a_c1_knitwork_pure_1B07UWE.sdf', '/opt/xchem-fragalysis-2/maxwin/openbind-hippo/a71ev2a/openbind_a71ev2a_c1_scaffold_products.sdf', '/opt/xchem-fragalysis-2/maxwin/openbind-hippo/a71ev2a/cycle_01/bulkdock/openbind_a71ev2a_c1_scaffold_products.sdf', '/opt/xchem-fragalysis-2/maxwin/openbind-hippo/a71ev2a/cycle_01/bulkdock/openbind_a71ev2a_c1_scaffolds.sdf']

>  <fragmenstein_runtime>  (404) 
54.813901

$$$$
C45903-P364
     RDKit          3D

 21 23  0  0  0  0  0  0  0  0999 V2000
   26.3326   19.1438   26.3833 O   0  0  0  0  0  0  0  0  0  0  0  0
   25.9609   18.3759   25.2307 C   0  0  2  0  0  0  0  0  0  0  0  0
   25.2807   19.2932   24.2054 C   0  0  0  0  0  0  0  0  0  0  0  0
   25.1394   18.6600   22.8194 C   0  0  0  0  0  0  0  0  0  0  0  0
   26.2536   18.9181   21.9231 N   0  0  0  0  0  0  0  0  0  0  0  0
   26.5461   20.1670   21.4037 C   0  0  0  0  0  0  0  0  0  0  0  0
   25.6464   21.1803   21.4449 C   0  0  0  0  0  0  0  0  0  0  0  0
   26.1604   22.3913   21.1186 C   0  0  0  0  0  0  0  0  0  0  0  0
   27.4185   22.6390   20.7418 N   0  0  0  0  0  0  0  0  0  0  0  0
   28.2079   21.5824   20.5847 C   0  0  0  0  0  0  0  0  0  0  0  0
   29.4750   21.8205   20.0470 N   0  0  0  0  0  0  0  0  0  0  0  0
   30.2983   20.6612   19.7733 C   0  0  0  0  0  0  0  0  0  0  0  0
   31.4626   21.0423   18.8617 C   0  0  0  0  0  0  0  0  0  0  0  0
   32.2659   22.1946   19.4508 C   0  0  0  0  0  0  0  0  0  0  0  0
   31.3635   23.3788   19.7781 C   0  0  0  0  0  0  0  0  0  0  0  0
   30.1583   22.9731   20.6338 C   0  0  0  0  0  0  0  0  0  0  0  0
   27.7748   20.3421   20.8685 N   0  0  0  0  0  0  0  0  0  0  0  0
   25.0558   17.2215   25.6650 C   0  0  0  0  0  0  0  0  0  0  0  0
   23.7916   17.5102   26.5242 C   0  0  0  0  0  0  0  0  0  0  0  0
   24.0580   16.1660   27.2331 C   0  0  0  0  0  0  0  0  0  0  0  0
   25.5423   16.3360   26.8476 C   0  0  0  0  0  0  0  0  0  0  0  0
  2  1  1  1
  2  3  1  0
  3  4  1  0
  4  5  1  0
  5  6  1  0
  6  7  2  0
  7  8  1  0
  8  9  2  0
  9 10  1  0
 10 11  1  0
 11 12  1  0
 12 13  1  0
 13 14  1  0
 14 15  1  0
 15 16  1  0
 10 17  2  0
  2 18  1  0
 18 19  1  0
 19 20  1  0
 20 21  1  0
 17  6  1  0
 21 18  1  0
 16 11  1  0
M  END
>  <ref_pdb>  (405) 
A4445b

>  <subsites>  (405) 
1 - Active Site,5 - A3181/A/202/1

>  <HIPPO Compound ID>  (405) 
45903

>  <energy_score>  (405) 
-46.178889

>  <fragmenstein_mode>  (405) 
expansion

>  <scratch_subdir>  (405) 
/opt/xchem-fragalysis-2/maxwin/BulkDock/SCRATCH/511255/C45903-P364

>  <smiles>  (405) 
O[C@H](CCNc1ccnc(N2CCCCC2)n1)C1CCC1

>  <alias>  (405) 
C45903-P364

>  <ref_mols>  (405) 
A4445b,A1146a

>  <inspiration_score>  (405) 
None

>  <tags>  (405) 
BulkDock Fragalysis export,fragmenstein_placed,openbind_a71ev2a_c1_scaffolds,openbind_a71ev2a_c1_knitwork_pure

>  <fragmenstein_outcome>  (405) 
acceptable

>  <fragmenstein_error>  (405) 


>  <distance_score>  (405) 
0.620658

>  <inchikey>  (405) 
QGVOJAWYYQCOKY-UHFFFAOYSA-N

>  <name>  (405) 
C45903-P364

>  <HIPPO Pose ID>  (405) 
311124

>  <Energy>  (405) 
-88.260097

>  <exports>  (405) 
['/opt/xchem-fragalysis-2/maxwin/BulkDock/OUTPUTS/openbind_a71ev2a_c1_knitwork_pure_165VWF8.sdf', '/opt/xchem-fragalysis-2/maxwin/BulkDock/OUTPUTS/openbind_a71ev2a_c1_knitwork_pure_1B07PTU.sdf', '/opt/xchem-fragalysis-2/maxwin/BulkDock/OUTPUTS/openbind_a71ev2a_c1_knitwork_pure_1B07UWE.sdf', '/opt/xchem-fragalysis-2/maxwin/openbind-hippo/a71ev2a/openbind_a71ev2a_c1_scaffold_products.sdf', '/opt/xchem-fragalysis-2/maxwin/openbind-hippo/a71ev2a/cycle_01/bulkdock/openbind_a71ev2a_c1_scaffold_products.sdf', '/opt/xchem-fragalysis-2/maxwin/openbind-hippo/a71ev2a/cycle_01/bulkdock/openbind_a71ev2a_c1_scaffolds.sdf']

>  <fragmenstein_runtime>  (405) 
134.938231

$$$$
C19322-P234
     RDKit          3D

 13 13  0  0  0  0  0  0  0  0999 V2000
    5.7035   15.3902   21.7721 N   0  0  0  0  0  0  0  0  0  0  0  0
    7.0739   14.6798   22.4512 S   0  0  0  0  0  0  0  0  0  0  0  0
    8.2100   15.3869   21.9202 O   0  0  0  0  0  0  0  0  0  0  0  0
    6.8866   13.2570   22.2743 O   0  0  0  0  0  0  0  0  0  0  0  0
    6.7794   15.1864   24.1324 C   0  0  0  0  0  0  0  0  0  0  0  0
    7.7920   14.6913   25.1408 C   0  0  0  0  0  0  0  0  0  0  0  0
    7.5366   13.2521   25.5679 C   0  0  0  0  0  0  0  0  0  0  0  0
    8.1398   12.2013   24.7845 N   0  0  0  0  0  0  0  0  0  0  0  0
    7.6960   10.8529   24.9740 C   0  0  0  0  0  0  0  0  0  0  0  0
    8.5987    9.9985   24.1294 C   0  0  0  0  0  0  0  0  0  0  0  0
    9.6317   10.9102   23.5361 C   0  0  0  0  0  0  0  0  0  0  0  0
    9.3877   12.2307   24.1851 C   0  0  0  0  0  0  0  0  0  0  0  0
   10.1905   13.1443   24.1821 O   0  0  0  0  0  0  0  0  0  0  0  0
  1  2  1  0
  2  3  2  0
  2  4  2  0
  2  5  1  0
  5  6  1  0
  6  7  1  0
  7  8  1  0
  8  9  1  0
  9 10  1  0
 10 11  1  0
 11 12  1  0
 12 13  2  0
 12  8  1  0
M  END
>  <ref_pdb>  (406) 
A3895a

>  <subsites>  (406) 
1 - Active Site

>  <HIPPO Compound ID>  (406) 
45756

>  <energy_score>  (406) 
-20.759882

>  <fragmenstein_mode>  (406) 
expansion

>  <scratch_subdir>  (406) 
/opt/xchem-fragalysis-2/maxwin/BulkDock/SCRATCH/511255/C19322-P234

>  <smiles>  (406) 
NS(=O)(=O)CCCN1CCCC1=O

>  <alias>  (406) 
C19322-P234

>  <ref_mols>  (406) 
A3895a,A0719a

>  <inspiration_score>  (406) 
None

>  <tags>  (406) 
BulkDock Fragalysis export,fragmenstein_placed,openbind_a71ev2a_c1_scaffolds,openbind_a71ev2a_c1_knitwork_pure

>  <fragmenstein_outcome>  (406) 
acceptable

>  <fragmenstein_error>  (406) 


>  <distance_score>  (406) 
0.783359

>  <inchikey>  (406) 
VOCNZKAZPJNZLB-UHFFFAOYSA-N

>  <name>  (406) 
C19322-P234

>  <HIPPO Pose ID>  (406) 
311364

>  <Energy>  (406) 
-99.778144

>  <exports>  (406) 
['/opt/xchem-fragalysis-2/maxwin/BulkDock/OUTPUTS/openbind_a71ev2a_c1_knitwork_pure_165VWF8.sdf', '/opt/xchem-fragalysis-2/maxwin/BulkDock/OUTPUTS/openbind_a71ev2a_c1_knitwork_pure_1B07PTU.sdf', '/opt/xchem-fragalysis-2/maxwin/BulkDock/OUTPUTS/openbind_a71ev2a_c1_knitwork_pure_1B07UWE.sdf', '/opt/xchem-fragalysis-2/maxwin/openbind-hippo/a71ev2a/openbind_a71ev2a_c1_scaffold_products.sdf', '/opt/xchem-fragalysis-2/maxwin/openbind-hippo/a71ev2a/cycle_01/bulkdock/openbind_a71ev2a_c1_scaffold_products.sdf', '/opt/xchem-fragalysis-2/maxwin/openbind-hippo/a71ev2a/cycle_01/bulkdock/openbind_a71ev2a_c1_scaffolds.sdf']

>  <fragmenstein_runtime>  (406) 
1.762034

$$$$
C129526-P38
     RDKit          3D

 22 24  0  0  0  0  0  0  0  0999 V2000
   20.2668   12.2848   -2.6982 C   0  0  0  0  0  0  0  0  0  0  0  0
   19.3847   13.5069   -2.5665 C   0  0  0  0  0  0  0  0  0  0  0  0
   18.4638   13.7128   -3.2515 O   0  0  0  0  0  0  0  0  0  0  0  0
   19.9570   14.3238   -1.3844 N   0  0  0  0  0  0  0  0  0  0  0  0
   19.5726   15.6048   -0.8642 C   0  0  0  0  0  0  0  0  0  0  0  0
   18.3201   15.4301   -0.0070 C   0  0  2  0  0  0  0  0  0  0  0  0
   18.3642   16.2395    1.3246 C   0  0  0  0  0  0  0  0  0  0  0  0
   18.7623   14.9367    2.0514 C   0  0  2  0  0  0  0  0  0  0  0  0
   20.1863   14.6344    2.1502 N   0  0  0  0  0  0  0  0  0  0  0  0
   21.4140   15.5831    2.2984 C   0  0  0  0  0  0  0  0  0  0  0  0
   21.4747   16.7516    2.2860 O   0  0  0  0  0  0  0  0  0  0  0  0
   22.6282   14.6908    2.5699 C   0  0  0  0  0  0  0  0  0  0  0  0
   22.9639   13.8631    1.3899 C   0  0  0  0  0  0  0  0  0  0  0  0
   22.2387   13.6720    0.3057 N   0  0  0  0  0  0  0  0  0  0  0  0
   22.9571   12.8930   -0.5658 N   0  0  0  0  0  0  0  0  0  0  0  0
   24.0962   12.5901    0.0177 C   0  0  0  0  0  0  0  0  0  0  0  0
   24.1039   13.1182    1.2796 N   0  0  0  0  0  0  0  0  0  0  0  0
   25.1777   12.9618    2.2371 C   0  0  0  0  0  0  0  0  0  0  0  0
   26.1763   11.8801    1.8205 C   0  0  0  0  0  0  0  0  0  0  0  0
   26.4923   11.9722    0.3257 C   0  0  0  0  0  0  0  0  0  0  0  0
   25.2280   11.7955   -0.5200 C   0  0  0  0  0  0  0  0  0  0  0  0
   18.0967   14.1716    0.8881 C   0  0  0  0  0  0  0  0  0  0  0  0
  1  2  1  0
  2  3  2  0
  2  4  1  0
  4  5  1  0
  6  5  1  1
  6  7  1  0
  7  8  1  0
  8  9  1  6
  9 10  1  0
 10 11  2  0
 10 12  1  0
 12 13  1  0
 13 14  2  0
 14 15  1  0
 15 16  2  0
 16 17  1  0
 17 18  1  0
 18 19  1  0
 19 20  1  0
 20 21  1  0
  8 22  1  0
 22  6  1  0
 17 13  1  0
 21 16  1  0
M  END
>  <ref_pdb>  (407) 
A0608a

>  <subsites>  (407) 
6 - A0486/A/147/1

>  <HIPPO Compound ID>  (407) 
129526

>  <energy_score>  (407) 
-2.783011

>  <fragmenstein_mode>  (407) 
expansion

>  <scratch_subdir>  (407) 
/opt/xchem-fragalysis-2/maxwin/BulkDock/SCRATCH/511255/C129526-P38

>  <smiles>  (407) 
CC(=O)NC[C@H]1C[C@@H](NC(=O)Cc2nnc3n2CCCC3)C1

>  <alias>  (407) 
C129526-P38

>  <ref_mols>  (407) 
A0239a,A0608a

>  <inspiration_score>  (407) 
None

>  <tags>  (407) 
BulkDock Fragalysis export,fragmenstein_placed,openbind_a71ev2a_c1_scaffolds,openbind_a71ev2a_c1_knitwork_pure

>  <fragmenstein_outcome>  (407) 
acceptable

>  <fragmenstein_error>  (407) 


>  <distance_score>  (407) 
0.972605

>  <inchikey>  (407) 
JRIXZBVWMSAORN-UHFFFAOYSA-N

>  <name>  (407) 
C129526-P38

>  <HIPPO Pose ID>  (407) 
312424

>  <Energy>  (407) 
9.630923

>  <exports>  (407) 
['/opt/xchem-fragalysis-2/maxwin/BulkDock/OUTPUTS/openbind_a71ev2a_c1_knitwork_pure_165VWF8.sdf', '/opt/xchem-fragalysis-2/maxwin/BulkDock/OUTPUTS/openbind_a71ev2a_c1_knitwork_pure_1B07PTU.sdf', '/opt/xchem-fragalysis-2/maxwin/BulkDock/OUTPUTS/openbind_a71ev2a_c1_knitwork_pure_1B07UWE.sdf', '/opt/xchem-fragalysis-2/maxwin/openbind-hippo/a71ev2a/openbind_a71ev2a_c1_scaffold_products.sdf', '/opt/xchem-fragalysis-2/maxwin/openbind-hippo/a71ev2a/cycle_01/bulkdock/openbind_a71ev2a_c1_scaffold_products.sdf', '/opt/xchem-fragalysis-2/maxwin/openbind-hippo/a71ev2a/cycle_01/bulkdock/openbind_a71ev2a_c1_scaffolds.sdf']

>  <fragmenstein_runtime>  (407) 
2.013477

$$$$
C129593-P51
     RDKit          3D

 22 24  0  0  0  0  0  0  0  0999 V2000
   19.5807   13.2552    3.3595 O   0  0  0  0  0  0  0  0  0  0  0  0
   19.8437   14.2872    2.8867 C   0  0  0  0  0  0  0  0  0  0  0  0
   18.8120   15.2759    2.3321 C   0  0  0  0  0  0  0  0  0  0  0  0
   17.3554   14.8004    2.3278 C   0  0  0  0  0  0  0  0  0  0  0  0
   17.1427   13.3532    1.9024 C   0  0  1  0  0  0  0  0  0  0  0  0
   15.7593   13.0226    1.3802 C   0  0  0  0  0  0  0  0  0  0  0  0
   16.0303   11.6925    0.7151 C   0  0  0  0  0  0  0  0  0  0  0  0
   17.4410   11.8526    0.1750 C   0  0  0  0  0  0  0  0  0  0  0  0
   18.0213   12.9896    0.8322 O   0  0  0  0  0  0  0  0  0  0  0  0
   21.2194   14.9267    2.5754 N   0  0  0  0  0  0  0  0  0  0  0  0
   22.5594   14.3835    2.6958 C   0  0  0  0  0  0  0  0  0  0  0  0
   23.2206   14.1741    1.2997 C   0  0  2  0  0  0  0  0  0  0  0  0
   23.8568   15.4256    0.9672 O   0  0  0  0  0  0  0  0  0  0  0  0
   22.1550   13.8876    0.2111 C   0  0  0  0  0  0  0  0  0  0  0  0
   22.7904   13.6242   -1.1449 C   0  0  0  0  0  0  0  0  0  0  0  0
   23.6455   12.3751   -1.0846 C   0  0  0  0  0  0  0  0  0  0  0  0
   24.5656   12.3536    0.1073 C   0  0  0  0  0  0  0  0  0  0  0  0
   25.6515   11.4669    0.0602 C   0  0  0  0  0  0  0  0  0  0  0  0
   26.5184   11.3535    1.1395 C   0  0  0  0  0  0  0  0  0  0  0  0
   26.3000   12.1098    2.2836 C   0  0  0  0  0  0  0  0  0  0  0  0
   25.2285   13.0025    2.3423 C   0  0  0  0  0  0  0  0  0  0  0  0
   24.3400   13.1415    1.2617 C   0  0  0  0  0  0  0  0  0  0  0  0
  1  2  2  0
  2  3  1  0
  3  4  1  0
  5  4  1  6
  5  6  1  0
  6  7  1  0
  7  8  1  0
  8  9  1  0
  2 10  1  0
 10 11  1  0
 11 12  1  0
 12 13  1  6
 12 14  1  0
 14 15  1  0
 15 16  1  0
 16 17  1  0
 17 18  2  0
 18 19  1  0
 19 20  2  0
 20 21  1  0
 21 22  2  0
  9  5  1  0
 22 12  1  0
 22 17  1  0
M  END
>  <ref_pdb>  (408) 
A0239a

>  <subsites>  (408) 
6 - A0486/A/147/1

>  <HIPPO Compound ID>  (408) 
129593

>  <energy_score>  (408) 
-7.115347

>  <fragmenstein_mode>  (408) 
expansion

>  <scratch_subdir>  (408) 
/opt/xchem-fragalysis-2/maxwin/BulkDock/SCRATCH/511255/C129593-P51

>  <smiles>  (408) 
O=C(CC[C@H]1CCCO1)NC[C@]1(O)CCCc2ccccc21

>  <alias>  (408) 
C129593-P51

>  <ref_mols>  (408) 
A0239a,A0608a

>  <inspiration_score>  (408) 
None

>  <tags>  (408) 
BulkDock Fragalysis export,fragmenstein_placed,openbind_a71ev2a_c1_scaffolds,openbind_a71ev2a_c1_knitwork_pure

>  <fragmenstein_outcome>  (408) 
acceptable

>  <fragmenstein_error>  (408) 


>  <distance_score>  (408) 
0.991159

>  <inchikey>  (408) 
KRFRNBXJSXYDDU-UHFFFAOYSA-N

>  <name>  (408) 
C129593-P51

>  <HIPPO Pose ID>  (408) 
312537

>  <Energy>  (408) 
63.937732

>  <exports>  (408) 
['/opt/xchem-fragalysis-2/maxwin/BulkDock/OUTPUTS/openbind_a71ev2a_c1_knitwork_pure_165VWF8.sdf', '/opt/xchem-fragalysis-2/maxwin/BulkDock/OUTPUTS/openbind_a71ev2a_c1_knitwork_pure_1B07PTU.sdf', '/opt/xchem-fragalysis-2/maxwin/BulkDock/OUTPUTS/openbind_a71ev2a_c1_knitwork_pure_1B07UWE.sdf', '/opt/xchem-fragalysis-2/maxwin/openbind-hippo/a71ev2a/openbind_a71ev2a_c1_scaffold_products.sdf', '/opt/xchem-fragalysis-2/maxwin/openbind-hippo/a71ev2a/cycle_01/bulkdock/openbind_a71ev2a_c1_scaffold_products.sdf', '/opt/xchem-fragalysis-2/maxwin/openbind-hippo/a71ev2a/cycle_01/bulkdock/openbind_a71ev2a_c1_scaffolds.sdf']

>  <fragmenstein_runtime>  (408) 
4.14682

$$$$
C69074-P201
     RDKit          3D

 17 19  0  0  0  0  0  0  0  0999 V2000
    9.4325   13.7594   25.2768 O   0  0  0  0  0  0  0  0  0  0  0  0
    8.5178   13.3671   24.5576 C   0  0  0  0  0  0  0  0  0  0  0  0
    8.2101   13.8172   23.1389 C   0  0  0  0  0  0  0  0  0  0  0  0
    9.2321   14.7186   22.6035 N   0  0  0  0  0  0  0  0  0  0  0  0
    8.8683   15.2175   21.2775 C   0  0  0  0  0  0  0  0  0  0  0  0
   10.1679   15.7638   20.7169 C   0  0  0  0  0  0  0  0  0  0  0  0
   11.2700   15.0449   21.4817 C   0  0  0  0  0  0  0  0  0  0  0  0
   10.5490   14.1010   22.4322 C   0  0  0  0  0  0  0  0  0  0  0  0
    7.5920   12.3712   25.1205 C   0  0  0  0  0  0  0  0  0  0  0  0
    7.7072   11.0233   24.7454 C   0  0  0  0  0  0  0  0  0  0  0  0
    6.9122   10.0622   25.3728 C   0  0  0  0  0  0  0  0  0  0  0  0
    6.0673   10.4633   26.3920 C   0  0  0  0  0  0  0  0  0  0  0  0
    5.9440   11.8115   26.7337 C   0  0  0  0  0  0  0  0  0  0  0  0
    6.6861   12.7881   26.0999 C   0  0  0  0  0  0  0  0  0  0  0  0
    4.9386   11.9522   27.8270 C   0  0  0  0  0  0  0  0  0  0  0  0
    4.8131   10.4810   28.2734 C   0  0  0  0  0  0  0  0  0  0  0  0
    5.1744    9.6574   27.1180 N   0  0  0  0  0  0  0  0  0  0  0  0
  1  2  2  0
  2  3  1  0
  3  4  1  0
  4  5  1  0
  5  6  1  0
  6  7  1  0
  7  8  1  0
  2  9  1  0
  9 10  2  0
 10 11  1  0
 11 12  2  0
 12 13  1  0
 13 14  2  0
 13 15  1  0
 15 16  1  0
 16 17  1  0
  8  4  1  0
 14  9  1  0
 17 12  1  0
M  END
>  <ref_pdb>  (409) 
A3634a

>  <subsites>  (409) 
1 - Active Site

>  <HIPPO Compound ID>  (409) 
69074

>  <energy_score>  (409) 
-24.654687

>  <fragmenstein_mode>  (409) 
expansion

>  <scratch_subdir>  (409) 
/opt/xchem-fragalysis-2/maxwin/BulkDock/SCRATCH/511255/C69074-P201

>  <smiles>  (409) 
O=C(CN1CCCC1)c1ccc2c(c1)CCN2

>  <alias>  (409) 
C69074-P201

>  <ref_mols>  (409) 
A3634a,A1778a

>  <inspiration_score>  (409) 
None

>  <tags>  (409) 
BulkDock Fragalysis export,fragmenstein_placed,openbind_a71ev2a_c1_scaffolds,openbind_a71ev2a_c1_knitwork_pure

>  <fragmenstein_outcome>  (409) 
acceptable

>  <fragmenstein_error>  (409) 


>  <distance_score>  (409) 
0.7996

>  <inchikey>  (409) 
UJUZDCBLGJJXRQ-UHFFFAOYSA-N

>  <name>  (409) 
C69074-P201

>  <HIPPO Pose ID>  (409) 
313133

>  <Energy>  (409) 
83.026631

>  <exports>  (409) 
['/opt/xchem-fragalysis-2/maxwin/BulkDock/OUTPUTS/openbind_a71ev2a_c1_knitwork_pure_165VWF8.sdf', '/opt/xchem-fragalysis-2/maxwin/BulkDock/OUTPUTS/openbind_a71ev2a_c1_knitwork_pure_1B07PTU.sdf', '/opt/xchem-fragalysis-2/maxwin/BulkDock/OUTPUTS/openbind_a71ev2a_c1_knitwork_pure_1B07UWE.sdf', '/opt/xchem-fragalysis-2/maxwin/openbind-hippo/a71ev2a/openbind_a71ev2a_c1_scaffold_products.sdf', '/opt/xchem-fragalysis-2/maxwin/openbind-hippo/a71ev2a/cycle_01/bulkdock/openbind_a71ev2a_c1_scaffold_products.sdf', '/opt/xchem-fragalysis-2/maxwin/openbind-hippo/a71ev2a/cycle_01/bulkdock/openbind_a71ev2a_c1_scaffolds.sdf']

>  <fragmenstein_runtime>  (409) 
5.122224

$$$$
C51875-P364
     RDKit          3D

 13 13  0  0  0  0  0  0  0  0999 V2000
    9.8055    9.3127   23.1216 C   0  0  0  0  0  0  0  0  0  0  0  0
    9.9930   10.6983   22.9404 O   0  0  0  0  0  0  0  0  0  0  0  0
    9.4293   11.4621   23.9248 C   0  0  0  0  0  0  0  0  0  0  0  0
    8.4698   10.9091   24.7049 N   0  0  0  0  0  0  0  0  0  0  0  0
    7.8273   11.7260   25.5561 C   0  0  0  0  0  0  0  0  0  0  0  0
    8.1212   13.0757   25.7127 C   0  0  0  0  0  0  0  0  0  0  0  0
    7.3877   13.9486   26.7061 C   0  0  2  0  0  0  0  0  0  0  0  0
    5.9825   13.4797   27.0867 C   0  0  0  0  0  0  0  0  0  0  0  0
    7.2611   15.3737   26.2157 C   0  0  0  0  0  0  0  0  0  0  0  0
    7.8420   16.3127   26.7527 O   0  0  0  0  0  0  0  0  0  0  0  0
    9.1724   13.5917   24.9359 C   0  0  0  0  0  0  0  0  0  0  0  0
    9.8146   12.7886   24.0034 C   0  0  0  0  0  0  0  0  0  0  0  0
   11.0282   13.4674   22.9966 Cl  0  0  0  0  0  0  0  0  0  0  0  0
  1  2  1  0
  2  3  1  0
  3  4  2  0
  4  5  1  0
  5  6  2  0
  6  7  1  0
  7  8  1  6
  7  9  1  0
  9 10  2  0
  6 11  1  0
 11 12  2  0
 12 13  1  0
 12  3  1  0
M  END
>  <ref_pdb>  (410) 
A4445b

>  <subsites>  (410) 
1 - Active Site

>  <HIPPO Compound ID>  (410) 
51875

>  <energy_score>  (410) 
-7.319087

>  <fragmenstein_mode>  (410) 
expansion

>  <scratch_subdir>  (410) 
/opt/xchem-fragalysis-2/maxwin/BulkDock/SCRATCH/511255/C51875-P364

>  <smiles>  (410) 
COc1ncc([C@H](C)C=O)cc1Cl

>  <alias>  (410) 
C51875-P364

>  <ref_mols>  (410) 
A4445b,A2629a

>  <inspiration_score>  (410) 
None

>  <tags>  (410) 
BulkDock Fragalysis export,fragmenstein_placed,openbind_a71ev2a_c1_scaffolds,openbind_a71ev2a_c1_knitwork_pure

>  <fragmenstein_outcome>  (410) 
acceptable

>  <fragmenstein_error>  (410) 


>  <distance_score>  (410) 
0.812445

>  <inchikey>  (410) 
UZTGHTCNTUSHGZ-UHFFFAOYSA-N

>  <name>  (410) 
C51875-P364

>  <HIPPO Pose ID>  (410) 
313510

>  <Energy>  (410) 
45.923582

>  <exports>  (410) 
['/opt/xchem-fragalysis-2/maxwin/BulkDock/OUTPUTS/openbind_a71ev2a_c1_knitwork_pure_165VWF8.sdf', '/opt/xchem-fragalysis-2/maxwin/BulkDock/OUTPUTS/openbind_a71ev2a_c1_knitwork_pure_1B07PTU.sdf', '/opt/xchem-fragalysis-2/maxwin/BulkDock/OUTPUTS/openbind_a71ev2a_c1_knitwork_pure_1B07UWE.sdf', '/opt/xchem-fragalysis-2/maxwin/openbind-hippo/a71ev2a/openbind_a71ev2a_c1_scaffold_products.sdf', '/opt/xchem-fragalysis-2/maxwin/openbind-hippo/a71ev2a/cycle_01/bulkdock/openbind_a71ev2a_c1_scaffold_products.sdf', '/opt/xchem-fragalysis-2/maxwin/openbind-hippo/a71ev2a/cycle_01/bulkdock/openbind_a71ev2a_c1_scaffolds.sdf']

>  <fragmenstein_runtime>  (410) 
0.978201

$$$$
C51496-P390
     RDKit          3D

 21 22  0  0  0  0  0  0  0  0999 V2000
    9.5167   15.1606   26.4849 C   0  0  0  0  0  0  0  0  0  0  0  0
    8.0972   14.7347   26.1593 C   0  0  0  0  0  0  0  0  0  0  0  0
    7.1976   15.9758   26.0869 C   0  0  0  0  0  0  0  0  0  0  0  0
    7.9820   13.7616   24.9339 C   0  0  2  0  0  0  0  0  0  0  0  0
    7.9808   14.4466   23.5245 C   0  0  0  0  0  0  0  0  0  0  0  0
    9.2002   14.3169   22.6920 N   0  0  0  0  0  0  0  0  0  0  0  0
   10.4438   14.6618   23.3794 C   0  0  0  0  0  0  0  0  0  0  0  0
   11.6662   14.5279   22.4779 C   0  0  0  0  0  0  0  0  0  0  0  0
   11.5352   15.4298   21.2654 C   0  0  0  0  0  0  0  0  0  0  0  0
   10.2324   15.1382   20.5392 C   0  0  0  0  0  0  0  0  0  0  0  0
    9.0313   15.1609   21.4841 C   0  0  0  0  0  0  0  0  0  0  0  0
    6.7190   13.0402   25.1822 N   0  0  0  0  0  0  0  0  0  0  0  0
    6.9078   11.7922   25.9073 C   0  0  0  0  0  0  0  0  0  0  0  0
    5.8463   11.6094   26.9379 C   0  0  0  0  0  0  0  0  0  0  0  0
    5.7978   10.4322   27.6637 N   0  0  0  0  0  0  0  0  0  0  0  0
    4.7781   10.5948   28.4703 C   0  0  0  0  0  0  0  0  0  0  0  0
    4.1647   11.8028   28.3812 O   0  0  0  0  0  0  0  0  0  0  0  0
    4.8616   12.4648   27.3980 C   0  0  0  0  0  0  0  0  0  0  0  0
    4.4706   13.8590   27.0961 C   0  0  0  0  0  0  0  0  0  0  0  0
    4.3823   14.1084   25.7660 F   0  0  0  0  0  0  0  0  0  0  0  0
    3.2377   14.1438   27.6081 F   0  0  0  0  0  0  0  0  0  0  0  0
  1  2  1  0
  2  3  1  0
  2  4  1  0
  4  5  1  6
  5  6  1  0
  6  7  1  0
  7  8  1  0
  8  9  1  0
  9 10  1  0
 10 11  1  0
  4 12  1  0
 12 13  1  0
 13 14  1  0
 14 15  1  0
 15 16  2  0
 16 17  1  0
 17 18  1  0
 18 19  1  0
 19 20  1  0
 19 21  1  0
 11  6  1  0
 18 14  2  0
M  END
>  <ref_pdb>  (411) 
A4524a

>  <subsites>  (411) 
1 - Active Site

>  <HIPPO Compound ID>  (411) 
74411

>  <energy_score>  (411) 
-53.806018

>  <fragmenstein_mode>  (411) 
expansion

>  <scratch_subdir>  (411) 
/opt/xchem-fragalysis-2/maxwin/BulkDock/SCRATCH/512186/C51496-P390

>  <smiles>  (411) 
CC(C)[C@H](CN1CCCCC1)NCc1ncoc1C(F)F

>  <alias>  (411) 
C51496-P390

>  <ref_mols>  (411) 
A3623a,A4524a

>  <inspiration_score>  (411) 
None

>  <tags>  (411) 
BulkDock Fragalysis export,fragmenstein_placed,openbind_a71ev2a_c1_scaffolds,openbind_a71ev2a_c1_knitwork_pure

>  <fragmenstein_outcome>  (411) 
acceptable

>  <fragmenstein_error>  (411) 


>  <distance_score>  (411) 
0.824666

>  <inchikey>  (411) 
BPSGCGHAXUTQSM-UHFFFAOYSA-N

>  <name>  (411) 
C51496-P390

>  <HIPPO Pose ID>  (411) 
313623

>  <Energy>  (411) 
68.862175

>  <exports>  (411) 
['/opt/xchem-fragalysis-2/maxwin/BulkDock/OUTPUTS/openbind_a71ev2a_c1_knitwork_pure_165VWF8.sdf', '/opt/xchem-fragalysis-2/maxwin/BulkDock/OUTPUTS/openbind_a71ev2a_c1_knitwork_pure_1B07PTU.sdf', '/opt/xchem-fragalysis-2/maxwin/BulkDock/OUTPUTS/openbind_a71ev2a_c1_knitwork_pure_1B07UWE.sdf', '/opt/xchem-fragalysis-2/maxwin/openbind-hippo/a71ev2a/openbind_a71ev2a_c1_scaffold_products.sdf', '/opt/xchem-fragalysis-2/maxwin/openbind-hippo/a71ev2a/cycle_01/bulkdock/openbind_a71ev2a_c1_scaffold_products.sdf', '/opt/xchem-fragalysis-2/maxwin/openbind-hippo/a71ev2a/cycle_01/bulkdock/openbind_a71ev2a_c1_scaffolds.sdf']

>  <fragmenstein_runtime>  (411) 
4.083143

$$$$
C51516-P390
     RDKit          3D

 18 19  0  0  0  0  0  0  0  0999 V2000
    8.3358   14.9889   26.8492 C   0  0  0  0  0  0  0  0  0  0  0  0
    7.8830   15.1742   25.4069 C   0  0  0  0  0  0  0  0  0  0  0  0
    6.5410   15.9186   25.3789 C   0  0  0  0  0  0  0  0  0  0  0  0
    7.9173   13.8405   24.5950 C   0  0  2  0  0  0  0  0  0  0  0  0
    8.0008   14.1360   23.0671 C   0  0  0  0  0  0  0  0  0  0  0  0
    9.3324   14.2834   22.4486 N   0  0  0  0  0  0  0  0  0  0  0  0
   10.4476   14.6799   23.3015 C   0  0  0  0  0  0  0  0  0  0  0  0
   11.7653   14.6280   22.5347 C   0  0  0  0  0  0  0  0  0  0  0  0
   11.7195   15.5550   21.3343 C   0  0  0  0  0  0  0  0  0  0  0  0
   10.5278   15.2146   20.4530 C   0  0  0  0  0  0  0  0  0  0  0  0
    9.2321   15.1453   21.2571 C   0  0  0  0  0  0  0  0  0  0  0  0
    6.7734   12.9584   24.8548 N   0  0  0  0  0  0  0  0  0  0  0  0
    7.0259   11.9304   25.8520 C   0  0  0  0  0  0  0  0  0  0  0  0
    5.9173   11.7999   26.8216 C   0  0  0  0  0  0  0  0  0  0  0  0
    5.3736   10.7492   27.5211 C   0  0  0  0  0  0  0  0  0  0  0  0
    4.3471   11.1977   28.3129 N   0  0  0  0  0  0  0  0  0  0  0  0
    4.3174   12.4923   28.0713 C   0  0  0  0  0  0  0  0  0  0  0  0
    5.2450   12.9354   27.1873 O   0  0  0  0  0  0  0  0  0  0  0  0
  1  2  1  0
  2  3  1  0
  2  4  1  0
  4  5  1  6
  5  6  1  0
  6  7  1  0
  7  8  1  0
  8  9  1  0
  9 10  1  0
 10 11  1  0
  4 12  1  0
 12 13  1  0
 13 14  1  0
 14 15  2  0
 15 16  1  0
 16 17  2  0
 17 18  1  0
 11  6  1  0
 18 14  1  0
M  END
>  <ref_pdb>  (412) 
A4524a

>  <subsites>  (412) 
1 - Active Site

>  <HIPPO Compound ID>  (412) 
50762

>  <energy_score>  (412) 
-39.875163

>  <fragmenstein_mode>  (412) 
expansion

>  <scratch_subdir>  (412) 
/opt/xchem-fragalysis-2/maxwin/BulkDock/SCRATCH/512186/C51516-P390

>  <smiles>  (412) 
CC(C)[C@H](CN1CCCCC1)NCc1cnco1

>  <alias>  (412) 
C51516-P390

>  <ref_mols>  (412) 
A3623a,A4524a

>  <inspiration_score>  (412) 
None

>  <tags>  (412) 
BulkDock Fragalysis export,fragmenstein_placed,openbind_a71ev2a_c1_scaffolds,openbind_a71ev2a_c1_knitwork_pure

>  <fragmenstein_outcome>  (412) 
acceptable

>  <fragmenstein_error>  (412) 


>  <distance_score>  (412) 
0.875447

>  <inchikey>  (412) 
OGTRECUNLRMNFU-UHFFFAOYSA-N

>  <name>  (412) 
C51516-P390

>  <HIPPO Pose ID>  (412) 
313638

>  <Energy>  (412) 
49.885368

>  <exports>  (412) 
['/opt/xchem-fragalysis-2/maxwin/BulkDock/OUTPUTS/openbind_a71ev2a_c1_knitwork_pure_165VWF8.sdf', '/opt/xchem-fragalysis-2/maxwin/BulkDock/OUTPUTS/openbind_a71ev2a_c1_knitwork_pure_1B07PTU.sdf', '/opt/xchem-fragalysis-2/maxwin/BulkDock/OUTPUTS/openbind_a71ev2a_c1_knitwork_pure_1B07UWE.sdf', '/opt/xchem-fragalysis-2/maxwin/openbind-hippo/a71ev2a/openbind_a71ev2a_c1_scaffold_products.sdf', '/opt/xchem-fragalysis-2/maxwin/openbind-hippo/a71ev2a/cycle_01/bulkdock/openbind_a71ev2a_c1_scaffold_products.sdf', '/opt/xchem-fragalysis-2/maxwin/openbind-hippo/a71ev2a/cycle_01/bulkdock/openbind_a71ev2a_c1_scaffolds.sdf']

>  <fragmenstein_runtime>  (412) 
2.968878

$$$$
C51403-P239
     RDKit          3D

 21 21  0  0  0  0  0  0  0  0999 V2000
    8.7077   15.3929   21.4617 C   0  0  0  0  0  0  0  0  0  0  0  0
    9.9678   15.3082   22.3099 C   0  0  0  0  0  0  0  0  0  0  0  0
   11.1302   14.7512   21.4993 C   0  0  0  0  0  0  0  0  0  0  0  0
    9.7016   14.5006   23.5894 C   0  0  0  0  0  0  0  0  0  0  0  0
    9.3666   13.1318   23.3039 O   0  0  0  0  0  0  0  0  0  0  0  0
    8.6400   12.5086   24.2961 C   0  0  0  0  0  0  0  0  0  0  0  0
    8.4530   11.1349   24.2150 C   0  0  0  0  0  0  0  0  0  0  0  0
    7.5795   10.5117   25.1194 C   0  0  0  0  0  0  0  0  0  0  0  0
    6.9291   11.2869   26.0689 C   0  0  0  0  0  0  0  0  0  0  0  0
    5.9547   10.7810   26.9231 N   0  0  0  0  0  0  0  0  0  0  0  0
    5.3351   11.3835   28.2187 C   0  0  0  0  0  0  0  0  0  0  0  0
    5.6048   12.3569   28.8034 O   0  0  0  0  0  0  0  0  0  0  0  0
    4.1497   10.4907   28.5929 C   0  0  0  0  0  0  0  0  0  0  0  0
    3.3201   10.9153   29.8285 C   0  0  1  0  0  0  0  0  0  0  0  0
    3.1700   12.4261   30.0431 C   0  0  0  0  0  0  0  0  0  0  0  0
    1.9148   10.3331   29.7275 C   0  0  0  0  0  0  0  0  0  0  0  0
    1.2268   10.5128   30.8744 F   0  0  0  0  0  0  0  0  0  0  0  0
    1.9425    9.0084   29.4720 F   0  0  0  0  0  0  0  0  0  0  0  0
    1.2167   10.9170   28.7256 F   0  0  0  0  0  0  0  0  0  0  0  0
    7.2252   12.6430   26.1015 C   0  0  0  0  0  0  0  0  0  0  0  0
    8.0722   13.2582   25.2521 N   0  0  0  0  0  0  0  0  0  0  0  0
  1  2  1  0
  2  3  1  0
  2  4  1  0
  4  5  1  0
  5  6  1  0
  6  7  2  0
  7  8  1  0
  8  9  2  0
  9 10  1  0
 10 11  1  0
 11 12  2  0
 11 13  1  0
 13 14  1  0
 14 15  1  6
 14 16  1  0
 16 17  1  0
 16 18  1  0
 16 19  1  0
  9 20  1  0
 20 21  2  0
 21  6  1  0
M  END
>  <ref_pdb>  (413) 
A3920a

>  <subsites>  (413) 
1 - Active Site

>  <HIPPO Compound ID>  (413) 
66538

>  <energy_score>  (413) 
-27.235085

>  <fragmenstein_mode>  (413) 
expansion

>  <scratch_subdir>  (413) 
/opt/xchem-fragalysis-2/maxwin/BulkDock/SCRATCH/512186/C51403-P239

>  <smiles>  (413) 
CC(C)COc1ccc(NC(=O)C[C@@H](C)C(F)(F)F)cn1

>  <alias>  (413) 
C51403-P239

>  <ref_mols>  (413) 
A1445a,A3920a

>  <inspiration_score>  (413) 
None

>  <tags>  (413) 
BulkDock Fragalysis export,fragmenstein_placed,openbind_a71ev2a_c1_scaffolds,openbind_a71ev2a_c1_knitwork_pure

>  <fragmenstein_outcome>  (413) 
acceptable

>  <fragmenstein_error>  (413) 


>  <distance_score>  (413) 
0.838108

>  <inchikey>  (413) 
ZIEZQKTWDSPKJB-UHFFFAOYSA-N

>  <name>  (413) 
C51403-P239

>  <HIPPO Pose ID>  (413) 
314857

>  <Energy>  (413) 
18.103681

>  <exports>  (413) 
['/opt/xchem-fragalysis-2/maxwin/BulkDock/OUTPUTS/openbind_a71ev2a_c1_knitwork_pure_165VWF8.sdf', '/opt/xchem-fragalysis-2/maxwin/BulkDock/OUTPUTS/openbind_a71ev2a_c1_knitwork_pure_1B07PTU.sdf', '/opt/xchem-fragalysis-2/maxwin/BulkDock/OUTPUTS/openbind_a71ev2a_c1_knitwork_pure_1B07UWE.sdf', '/opt/xchem-fragalysis-2/maxwin/openbind-hippo/a71ev2a/openbind_a71ev2a_c1_scaffold_products.sdf', '/opt/xchem-fragalysis-2/maxwin/openbind-hippo/a71ev2a/cycle_01/bulkdock/openbind_a71ev2a_c1_scaffold_products.sdf', '/opt/xchem-fragalysis-2/maxwin/openbind-hippo/a71ev2a/cycle_01/bulkdock/openbind_a71ev2a_c1_scaffolds.sdf']

>  <fragmenstein_runtime>  (413) 
8.838578

$$$$
C28118-P252
     RDKit          3D

 15 17  0  0  0  0  0  0  0  0999 V2000
    7.7236   14.1767   23.5257 O   0  0  0  0  0  0  0  0  0  0  0  0
    8.6579   13.5313   23.9961 C   0  0  0  0  0  0  0  0  0  0  0  0
   10.0028   14.1888   24.2935 C   0  0  0  0  0  0  0  0  0  0  0  0
   11.0008   14.1472   23.1486 C   0  0  0  0  0  0  0  0  0  0  0  0
   10.8635   15.2265   22.1222 C   0  0  2  0  0  0  0  0  0  0  0  0
    9.6891   16.1635   21.9780 C   0  0  0  0  0  0  0  0  0  0  0  0
    9.8528   15.0333   21.0063 C   0  0  1  0  0  0  0  0  0  0  0  0
   10.1502   15.3004   19.5469 C   0  0  0  0  0  0  0  0  0  0  0  0
   11.2485   14.5707   18.8138 C   0  0  0  0  0  0  0  0  0  0  0  0
   11.3634   16.0166   19.0835 C   0  0  0  0  0  0  0  0  0  0  0  0
    8.4562   12.1299   24.3308 C   0  0  0  0  0  0  0  0  0  0  0  0
    9.3024   11.0231   24.1472 C   0  0  0  0  0  0  0  0  0  0  0  0
    8.7446    9.8777   24.5417 N   0  0  0  0  0  0  0  0  0  0  0  0
    7.5431   10.2440   24.9974 N   0  0  0  0  0  0  0  0  0  0  0  0
    7.3138   11.5805   24.8822 C   0  0  0  0  0  0  0  0  0  0  0  0
  1  2  2  0
  2  3  1  0
  3  4  1  0
  5  4  1  1
  5  6  1  0
  6  7  1  0
  7  8  1  6
  8  9  1  0
  9 10  1  0
  2 11  1  0
 11 12  1  0
 12 13  2  0
 13 14  1  0
 14 15  1  0
  7  5  1  0
 10  8  1  0
 15 11  2  0
M  END
>  <ref_pdb>  (414) 
A3975a

>  <subsites>  (414) 
1 - Active Site

>  <HIPPO Compound ID>  (414) 
50711

>  <energy_score>  (414) 
-13.520937

>  <fragmenstein_mode>  (414) 
expansion

>  <scratch_subdir>  (414) 
/opt/xchem-fragalysis-2/maxwin/BulkDock/SCRATCH/512186/C28118-P252

>  <smiles>  (414) 
O=C(CC[C@@H]1C[C@H]1C1CC1)c1cn[nH]c1

>  <alias>  (414) 
C28118-P252

>  <ref_mols>  (414) 
A3975a,A0556a

>  <inspiration_score>  (414) 
None

>  <tags>  (414) 
BulkDock Fragalysis export,fragmenstein_placed,openbind_a71ev2a_c1_scaffolds,openbind_a71ev2a_c1_knitwork_pure

>  <fragmenstein_outcome>  (414) 
acceptable

>  <fragmenstein_error>  (414) 


>  <distance_score>  (414) 
0.958944

>  <inchikey>  (414) 
BVUAKSYIXAEYKA-UHFFFAOYSA-N

>  <name>  (414) 
C28118-P252

>  <HIPPO Pose ID>  (414) 
315696

>  <Energy>  (414) 
50.387369

>  <exports>  (414) 
['/opt/xchem-fragalysis-2/maxwin/BulkDock/OUTPUTS/openbind_a71ev2a_c1_knitwork_pure_165VWF8.sdf', '/opt/xchem-fragalysis-2/maxwin/BulkDock/OUTPUTS/openbind_a71ev2a_c1_knitwork_pure_1B07PTU.sdf', '/opt/xchem-fragalysis-2/maxwin/BulkDock/OUTPUTS/openbind_a71ev2a_c1_knitwork_pure_1B07UWE.sdf', '/opt/xchem-fragalysis-2/maxwin/openbind-hippo/a71ev2a/openbind_a71ev2a_c1_scaffold_products.sdf', '/opt/xchem-fragalysis-2/maxwin/openbind-hippo/a71ev2a/cycle_01/bulkdock/openbind_a71ev2a_c1_scaffold_products.sdf', '/opt/xchem-fragalysis-2/maxwin/openbind-hippo/a71ev2a/cycle_01/bulkdock/openbind_a71ev2a_c1_scaffolds.sdf']

>  <fragmenstein_runtime>  (414) 
12.729276

$$$$
C81569-P109
     RDKit          3D

 22 25  0  0  0  0  0  0  0  0999 V2000
   23.3974   19.4244   20.7357 O   0  0  0  0  0  0  0  0  0  0  0  0
   23.3142   20.4305   21.3292 C   0  0  0  0  0  0  0  0  0  0  0  0
   24.3943   21.4948   21.6604 N   0  0  0  0  0  0  0  0  0  0  0  0
   25.7238   21.5848   21.2651 C   0  0  0  0  0  0  0  0  0  0  0  0
   26.3567   20.6175   20.5279 C   0  0  0  0  0  0  0  0  0  0  0  0
   27.6093   20.7419   20.0401 N   0  0  0  0  0  0  0  0  0  0  0  0
   28.2762   21.8772   20.3037 C   0  0  0  0  0  0  0  0  0  0  0  0
   29.4978   22.1014   19.6711 N   0  0  0  0  0  0  0  0  0  0  0  0
   30.1587   20.8914   19.1726 C   0  0  0  0  0  0  0  0  0  0  0  0
   31.4317   21.2360   18.3722 C   0  0  0  0  0  0  0  0  0  0  0  0
   32.3660   22.1164   19.1073 N   0  0  0  0  0  0  0  0  0  0  0  0
   31.6298   23.3396   19.4911 C   0  0  0  0  0  0  0  0  0  0  0  0
   30.3663   23.0686   20.3397 C   0  0  0  0  0  0  0  0  0  0  0  0
   27.7584   22.8494   21.0841 N   0  0  0  0  0  0  0  0  0  0  0  0
   26.4995   22.6821   21.5418 C   0  0  0  0  0  0  0  0  0  0  0  0
   21.9595   20.8789   21.9601 C   0  0  1  0  0  0  0  0  0  0  0  0
   21.5802   22.3978   22.0247 C   0  0  0  0  0  0  0  0  0  0  0  0
   20.1073   21.9887   21.7877 C   0  0  0  0  0  0  0  0  0  0  0  0
   20.6690   20.7221   21.1721 C   0  0  0  0  0  0  0  0  0  0  0  0
   20.6533   20.6390   19.6576 C   0  0  0  0  0  0  0  0  0  0  0  0
   19.4063   19.7307   19.8189 C   0  0  0  0  0  0  0  0  0  0  0  0
   19.8607   19.4536   21.2764 C   0  0  0  0  0  0  0  0  0  0  0  0
  1  2  2  0
  2  3  1  0
  3  4  1  0
  4  5  2  0
  5  6  1  0
  6  7  2  0
  7  8  1  0
  8  9  1  0
  9 10  1  0
 10 11  1  0
 11 12  1  0
 12 13  1  0
  7 14  1  0
 14 15  2  0
 16  2  1  6
 16 17  1  0
 17 18  1  0
 18 19  1  0
 19 20  1  0
 20 21  1  0
 21 22  1  0
 15  4  1  0
 19 16  1  0
 13  8  1  0
 22 19  1  0
M  END
>  <ref_pdb>  (415) 
A1146a

>  <subsites>  (415) 
5 - A3181/A/202/1,4 - A0525/A/246/1

>  <HIPPO Compound ID>  (415) 
47371

>  <energy_score>  (415) 
-46.162898

>  <fragmenstein_mode>  (415) 
expansion

>  <scratch_subdir>  (415) 
/opt/xchem-fragalysis-2/maxwin/BulkDock/SCRATCH/512186/C81569-P109

>  <smiles>  (415) 
O=C(Nc1cnc(N2CCNCC2)nc1)[C@H]1CCC12CCC2

>  <alias>  (415) 
C81569-P109

>  <ref_mols>  (415) 
A1146a,A0469a

>  <inspiration_score>  (415) 
None

>  <tags>  (415) 
BulkDock Fragalysis export,fragmenstein_placed,openbind_a71ev2a_c1_scaffolds,openbind_a71ev2a_c1_knitwork_pure

>  <fragmenstein_outcome>  (415) 
acceptable

>  <fragmenstein_error>  (415) 


>  <distance_score>  (415) 
0.530074

>  <inchikey>  (415) 
BYIBJOZHQLWVOG-UHFFFAOYSA-N

>  <name>  (415) 
C81569-P109

>  <HIPPO Pose ID>  (415) 
316234

>  <Energy>  (415) 
50.359961

>  <exports>  (415) 
['/opt/xchem-fragalysis-2/maxwin/BulkDock/OUTPUTS/openbind_a71ev2a_c1_knitwork_pure_165VWF8.sdf', '/opt/xchem-fragalysis-2/maxwin/BulkDock/OUTPUTS/openbind_a71ev2a_c1_knitwork_pure_1B07PTU.sdf', '/opt/xchem-fragalysis-2/maxwin/BulkDock/OUTPUTS/openbind_a71ev2a_c1_knitwork_pure_1B07UWE.sdf', '/opt/xchem-fragalysis-2/maxwin/openbind-hippo/a71ev2a/openbind_a71ev2a_c1_scaffold_products.sdf', '/opt/xchem-fragalysis-2/maxwin/openbind-hippo/a71ev2a/cycle_01/bulkdock/openbind_a71ev2a_c1_scaffold_products.sdf', '/opt/xchem-fragalysis-2/maxwin/openbind-hippo/a71ev2a/cycle_01/bulkdock/openbind_a71ev2a_c1_scaffolds.sdf']

>  <fragmenstein_runtime>  (415) 
39.692263

$$$$
C51862-P405
     RDKit          3D

 11 11  0  0  0  0  0  0  0  0999 V2000
    8.7637   14.6327   25.3706 C   0  0  0  0  0  0  0  0  0  0  0  0
    7.8753   13.7996   24.4655 C   0  0  1  0  0  0  0  0  0  0  0  0
    7.9507   14.2412   23.0196 C   0  0  0  0  0  0  0  0  0  0  0  0
    7.4686   13.5983   22.0863 O   0  0  0  0  0  0  0  0  0  0  0  0
    8.1211   12.3209   24.6170 C   0  0  0  0  0  0  0  0  0  0  0  0
    7.1830   11.6543   25.3360 N   0  0  0  0  0  0  0  0  0  0  0  0
    7.2621   10.3130   25.3489 C   0  0  0  0  0  0  0  0  0  0  0  0
    8.2569    9.5888   24.7141 C   0  0  0  0  0  0  0  0  0  0  0  0
    9.2477   10.2782   24.0347 C   0  0  0  0  0  0  0  0  0  0  0  0
    9.1852   11.6621   23.9920 C   0  0  0  0  0  0  0  0  0  0  0  0
   10.1480   12.3626   23.3294 O   0  0  0  0  0  0  0  0  0  0  0  0
  2  1  1  1
  2  3  1  0
  3  4  2  0
  2  5  1  0
  5  6  2  0
  6  7  1  0
  7  8  2  0
  8  9  1  0
  9 10  2  0
 10 11  1  0
 10  5  1  0
M  END
>  <ref_pdb>  (416) 
A4570a

>  <subsites>  (416) 
1 - Active Site

>  <HIPPO Compound ID>  (416) 
75048

>  <energy_score>  (416) 
-20.346979

>  <fragmenstein_mode>  (416) 
expansion

>  <scratch_subdir>  (416) 
/opt/xchem-fragalysis-2/maxwin/BulkDock/SCRATCH/512186/C51862-P405

>  <smiles>  (416) 
C[C@@H](C=O)c1ncccc1O

>  <alias>  (416) 
C51862-P405

>  <ref_mols>  (416) 
A3564a,A4570a

>  <inspiration_score>  (416) 
None

>  <tags>  (416) 
BulkDock Fragalysis export,fragmenstein_placed,openbind_a71ev2a_c1_scaffolds,openbind_a71ev2a_c1_knitwork_pure

>  <fragmenstein_outcome>  (416) 
acceptable

>  <fragmenstein_error>  (416) 


>  <distance_score>  (416) 
0.859254

>  <inchikey>  (416) 
DBYAVWKCAUZJRJ-UHFFFAOYSA-N

>  <name>  (416) 
C51862-P405

>  <HIPPO Pose ID>  (416) 
316671

>  <Energy>  (416) 
31.819254

>  <exports>  (416) 
['/opt/xchem-fragalysis-2/maxwin/BulkDock/OUTPUTS/openbind_a71ev2a_c1_knitwork_pure_165VWF8.sdf', '/opt/xchem-fragalysis-2/maxwin/BulkDock/OUTPUTS/openbind_a71ev2a_c1_knitwork_pure_1B07PTU.sdf', '/opt/xchem-fragalysis-2/maxwin/BulkDock/OUTPUTS/openbind_a71ev2a_c1_knitwork_pure_1B07UWE.sdf', '/opt/xchem-fragalysis-2/maxwin/openbind-hippo/a71ev2a/openbind_a71ev2a_c1_scaffold_products.sdf', '/opt/xchem-fragalysis-2/maxwin/openbind-hippo/a71ev2a/cycle_01/bulkdock/openbind_a71ev2a_c1_scaffold_products.sdf', '/opt/xchem-fragalysis-2/maxwin/openbind-hippo/a71ev2a/cycle_01/bulkdock/openbind_a71ev2a_c1_scaffolds.sdf']

>  <fragmenstein_runtime>  (416) 
0.76347

$$$$
C29316-P225
     RDKit          3D

 18 20  0  0  0  0  0  0  0  0999 V2000
    9.2366    9.5435   23.4352 O   0  0  0  0  0  0  0  0  0  0  0  0
    8.8175   10.6048   23.8294 C   0  0  0  0  0  0  0  0  0  0  0  0
    9.3407   12.0148   23.4907 C   0  0  0  0  0  0  0  0  0  0  0  0
   10.3282   12.2171   22.8284 O   0  0  0  0  0  0  0  0  0  0  0  0
    8.4747   12.9046   24.0988 N   0  0  0  0  0  0  0  0  0  0  0  0
    8.4667   14.3537   24.0081 C   0  0  0  0  0  0  0  0  0  0  0  0
    9.4778   15.1132   23.1288 C   0  0  1  0  0  0  0  0  0  0  0  0
   10.9270   15.0314   23.6337 C   0  0  0  0  0  0  0  0  0  0  0  0
   11.8851   15.7121   22.6627 C   0  0  0  0  0  0  0  0  0  0  0  0
   11.6432   15.2989   21.2193 C   0  0  0  0  0  0  0  0  0  0  0  0
   10.2700   15.6333   20.8430 N   0  0  0  0  0  0  0  0  0  0  0  0
    9.3223   14.8421   21.6233 C   0  0  0  0  0  0  0  0  0  0  0  0
    7.5217   12.1941   24.8597 C   0  0  0  0  0  0  0  0  0  0  0  0
    6.5170   12.6809   25.6753 C   0  0  0  0  0  0  0  0  0  0  0  0
    5.7164   11.7551   26.3608 C   0  0  0  0  0  0  0  0  0  0  0  0
    5.9150   10.3703   26.2109 C   0  0  0  0  0  0  0  0  0  0  0  0
    6.9132    9.8914   25.3690 C   0  0  0  0  0  0  0  0  0  0  0  0
    7.6965   10.8221   24.7269 C   0  0  0  0  0  0  0  0  0  0  0  0
  1  2  2  0
  2  3  1  0
  3  4  2  0
  3  5  1  0
  5  6  1  0
  7  6  1  1
  7  8  1  0
  8  9  1  0
  9 10  1  0
 10 11  1  0
 11 12  1  0
  5 13  1  0
 13 14  2  0
 14 15  1  0
 15 16  2  0
 16 17  1  0
 17 18  2  0
 18  2  1  0
 12  7  1  0
 18 13  1  0
M  END
>  <ref_pdb>  (417) 
A3858a

>  <subsites>  (417) 
1 - Active Site

>  <HIPPO Compound ID>  (417) 
51543

>  <energy_score>  (417) 
-23.227159

>  <fragmenstein_mode>  (417) 
expansion

>  <scratch_subdir>  (417) 
/opt/xchem-fragalysis-2/maxwin/BulkDock/SCRATCH/512186/C29316-P225

>  <smiles>  (417) 
O=C1C(=O)N(C[C@H]2CCCNC2)c2ccccc21

>  <alias>  (417) 
C29316-P225

>  <ref_mols>  (417) 
A3858a,A2513a

>  <inspiration_score>  (417) 
None

>  <tags>  (417) 
BulkDock Fragalysis export,fragmenstein_placed,openbind_a71ev2a_c1_scaffolds,openbind_a71ev2a_c1_knitwork_pure

>  <fragmenstein_outcome>  (417) 
acceptable

>  <fragmenstein_error>  (417) 


>  <distance_score>  (417) 
0.830034

>  <inchikey>  (417) 
DRKHZHCOCRWYTL-UHFFFAOYSA-N

>  <name>  (417) 
C29316-P225

>  <HIPPO Pose ID>  (417) 
318031

>  <Energy>  (417) 
71.884483

>  <exports>  (417) 
['/opt/xchem-fragalysis-2/maxwin/BulkDock/OUTPUTS/openbind_a71ev2a_c1_knitwork_pure_165VWF8.sdf', '/opt/xchem-fragalysis-2/maxwin/BulkDock/OUTPUTS/openbind_a71ev2a_c1_knitwork_pure_1B07PTU.sdf', '/opt/xchem-fragalysis-2/maxwin/BulkDock/OUTPUTS/openbind_a71ev2a_c1_knitwork_pure_1B07UWE.sdf', '/opt/xchem-fragalysis-2/maxwin/openbind-hippo/a71ev2a/openbind_a71ev2a_c1_scaffold_products.sdf', '/opt/xchem-fragalysis-2/maxwin/openbind-hippo/a71ev2a/cycle_01/bulkdock/openbind_a71ev2a_c1_scaffold_products.sdf', '/opt/xchem-fragalysis-2/maxwin/openbind-hippo/a71ev2a/cycle_01/bulkdock/openbind_a71ev2a_c1_scaffolds.sdf']

>  <fragmenstein_runtime>  (417) 
6.286528

$$$$
C45903-P336
     RDKit          3D

 21 23  0  0  0  0  0  0  0  0999 V2000
   22.7083   20.5024   23.8666 O   0  0  0  0  0  0  0  0  0  0  0  0
   22.8563   20.2617   22.4625 C   0  0  1  0  0  0  0  0  0  0  0  0
   23.6054   18.9426   22.2681 C   0  0  0  0  0  0  0  0  0  0  0  0
   25.0725   19.0137   22.7211 C   0  0  0  0  0  0  0  0  0  0  0  0
   25.9152   19.4906   21.6383 N   0  0  0  0  0  0  0  0  0  0  0  0
   26.6174   20.6781   21.6796 C   0  0  0  0  0  0  0  0  0  0  0  0
   26.1487   21.7948   22.3215 C   0  0  0  0  0  0  0  0  0  0  0  0
   26.9251   22.9143   22.2276 C   0  0  0  0  0  0  0  0  0  0  0  0
   28.0919   22.9517   21.5737 N   0  0  0  0  0  0  0  0  0  0  0  0
   28.5095   21.8222   20.9775 C   0  0  0  0  0  0  0  0  0  0  0  0
   29.7730   21.8390   20.3602 N   0  0  0  0  0  0  0  0  0  0  0  0
   29.9774   20.7484   19.4147 C   0  0  0  0  0  0  0  0  0  0  0  0
   31.4281   20.7118   18.9377 C   0  0  0  0  0  0  0  0  0  0  0  0
   31.8643   22.0626   18.3853 C   0  0  0  0  0  0  0  0  0  0  0  0
   31.6251   23.1545   19.4204 C   0  0  0  0  0  0  0  0  0  0  0  0
   30.1732   23.1701   19.9003 C   0  0  0  0  0  0  0  0  0  0  0  0
   27.7777   20.6906   20.9958 N   0  0  0  0  0  0  0  0  0  0  0  0
   21.4714   20.3156   21.8214 C   0  0  0  0  0  0  0  0  0  0  0  0
   20.5760   19.0549   21.6697 C   0  0  0  0  0  0  0  0  0  0  0  0
   20.0735   19.6700   20.3442 C   0  0  0  0  0  0  0  0  0  0  0  0
   21.4072   20.4372   20.2759 C   0  0  0  0  0  0  0  0  0  0  0  0
  2  1  1  1
  2  3  1  0
  3  4  1  0
  4  5  1  0
  5  6  1  0
  6  7  2  0
  7  8  1  0
  8  9  2  0
  9 10  1  0
 10 11  1  0
 11 12  1  0
 12 13  1  0
 13 14  1  0
 14 15  1  0
 15 16  1  0
 10 17  2  0
  2 18  1  0
 18 19  1  0
 19 20  1  0
 20 21  1  0
 17  6  1  0
 21 18  1  0
 16 11  1  0
M  END
>  <ref_pdb>  (418) 
A4214a

>  <subsites>  (418) 
1 - Active Site,5 - A3181/A/202/1

>  <HIPPO Compound ID>  (418) 
69262

>  <energy_score>  (418) 
-49.822493

>  <fragmenstein_mode>  (418) 
expansion

>  <scratch_subdir>  (418) 
/opt/xchem-fragalysis-2/maxwin/BulkDock/SCRATCH/512186/C45903-P336

>  <smiles>  (418) 
O[C@@H](CCNc1ccnc(N2CCCCC2)n1)C1CCC1

>  <alias>  (418) 
C45903-P336

>  <ref_mols>  (418) 
A4214a,A1146a

>  <inspiration_score>  (418) 
None

>  <tags>  (418) 
BulkDock Fragalysis export,fragmenstein_placed,openbind_a71ev2a_c1_scaffolds,openbind_a71ev2a_c1_knitwork_pure

>  <fragmenstein_outcome>  (418) 
acceptable

>  <fragmenstein_error>  (418) 


>  <distance_score>  (418) 
0.788615

>  <inchikey>  (418) 
SOJMYQQECXDIRN-UHFFFAOYSA-N

>  <name>  (418) 
C45903-P336

>  <HIPPO Pose ID>  (418) 
318158

>  <Energy>  (418) 
-94.179122

>  <exports>  (418) 
['/opt/xchem-fragalysis-2/maxwin/BulkDock/OUTPUTS/openbind_a71ev2a_c1_knitwork_pure_165VWF8.sdf', '/opt/xchem-fragalysis-2/maxwin/BulkDock/OUTPUTS/openbind_a71ev2a_c1_knitwork_pure_1B07PTU.sdf', '/opt/xchem-fragalysis-2/maxwin/BulkDock/OUTPUTS/openbind_a71ev2a_c1_knitwork_pure_1B07UWE.sdf', '/opt/xchem-fragalysis-2/maxwin/openbind-hippo/a71ev2a/openbind_a71ev2a_c1_scaffold_products.sdf', '/opt/xchem-fragalysis-2/maxwin/openbind-hippo/a71ev2a/cycle_01/bulkdock/openbind_a71ev2a_c1_scaffold_products.sdf', '/opt/xchem-fragalysis-2/maxwin/openbind-hippo/a71ev2a/cycle_01/bulkdock/openbind_a71ev2a_c1_scaffolds.sdf']

>  <fragmenstein_runtime>  (418) 
105.567213

$$$$
C51859-P495
     RDKit          3D

 13 13  0  0  0  0  0  0  0  0999 V2000
    9.7916    9.2648   23.1057 C   0  0  0  0  0  0  0  0  0  0  0  0
   10.1081   10.6401   23.1377 O   0  0  0  0  0  0  0  0  0  0  0  0
    9.3552   11.4750   23.9016 C   0  0  0  0  0  0  0  0  0  0  0  0
    8.3396   11.0548   24.7556 C   0  0  0  0  0  0  0  0  0  0  0  0
    7.5933   12.0190   25.3946 C   0  0  0  0  0  0  0  0  0  0  0  0
    7.8036   13.3360   25.2402 N   0  0  0  0  0  0  0  0  0  0  0  0
    8.8011   13.7148   24.4203 C   0  0  0  0  0  0  0  0  0  0  0  0
    8.9056   15.0654   24.2790 O   0  0  0  0  0  0  0  0  0  0  0  0
    9.6590   12.8382   23.7696 C   0  0  0  0  0  0  0  0  0  0  0  0
   10.9272   13.2943   23.0694 C   0  0  2  0  0  0  0  0  0  0  0  0
   11.8970   13.9239   24.0742 C   0  0  0  0  0  0  0  0  0  0  0  0
   10.7336   14.2428   21.9190 C   0  0  0  0  0  0  0  0  0  0  0  0
    9.8758   15.1226   21.9155 O   0  0  0  0  0  0  0  0  0  0  0  0
  1  2  1  0
  2  3  1  0
  3  4  2  0
  4  5  1  0
  5  6  2  0
  6  7  1  0
  7  8  1  0
  7  9  2  0
  9 10  1  0
 10 11  1  1
 10 12  1  0
 12 13  2  0
  9  3  1  0
M  END
>  <ref_pdb>  (419) 
A4874b

>  <subsites>  (419) 
1 - Active Site

>  <HIPPO Compound ID>  (419) 
87625

>  <energy_score>  (419) 
-24.075358

>  <fragmenstein_mode>  (419) 
expansion

>  <scratch_subdir>  (419) 
/opt/xchem-fragalysis-2/maxwin/BulkDock/SCRATCH/512186/C51859-P495

>  <smiles>  (419) 
COc1ccnc(O)c1[C@H](C)C=O

>  <alias>  (419) 
C51859-P495

>  <ref_mols>  (419) 
A4874b,A2629a

>  <inspiration_score>  (419) 
None

>  <tags>  (419) 
BulkDock Fragalysis export,fragmenstein_placed,openbind_a71ev2a_c1_scaffolds,openbind_a71ev2a_c1_knitwork_pure

>  <fragmenstein_outcome>  (419) 
acceptable

>  <fragmenstein_error>  (419) 


>  <distance_score>  (419) 
0.961127

>  <inchikey>  (419) 
FUASHUQWJFTJQN-UHFFFAOYSA-N

>  <name>  (419) 
C51859-P495

>  <HIPPO Pose ID>  (419) 
319578

>  <Energy>  (419) 
-5.792702

>  <exports>  (419) 
['/opt/xchem-fragalysis-2/maxwin/BulkDock/OUTPUTS/openbind_a71ev2a_c1_knitwork_pure_165VWF8.sdf', '/opt/xchem-fragalysis-2/maxwin/BulkDock/OUTPUTS/openbind_a71ev2a_c1_knitwork_pure_1B07PTU.sdf', '/opt/xchem-fragalysis-2/maxwin/BulkDock/OUTPUTS/openbind_a71ev2a_c1_knitwork_pure_1B07UWE.sdf', '/opt/xchem-fragalysis-2/maxwin/openbind-hippo/a71ev2a/openbind_a71ev2a_c1_scaffold_products.sdf', '/opt/xchem-fragalysis-2/maxwin/openbind-hippo/a71ev2a/cycle_01/bulkdock/openbind_a71ev2a_c1_scaffold_products.sdf', '/opt/xchem-fragalysis-2/maxwin/openbind-hippo/a71ev2a/cycle_01/bulkdock/openbind_a71ev2a_c1_scaffolds.sdf']

>  <fragmenstein_runtime>  (419) 
1.20013

$$$$
C46321-P481
     RDKit          3D

 21 23  0  0  0  0  0  0  0  0999 V2000
   21.0607   20.1252   23.3750 C   0  0  0  0  0  0  0  0  0  0  0  0
   21.5772   20.9017   22.1764 C   0  0  0  0  0  0  0  0  0  0  0  0
   23.0022   20.4852   21.7877 C   0  0  0  0  0  0  0  0  0  0  0  0
   23.5206   21.2120   20.5842 C   0  0  0  0  0  0  0  0  0  0  0  0
   22.6876   21.4900   19.5697 N   0  0  0  0  0  0  0  0  0  0  0  0
   23.4599   22.1208   18.6748 N   0  0  0  0  0  0  0  0  0  0  0  0
   24.7680   22.2381   19.0512 C   0  0  0  0  0  0  0  0  0  0  0  0
   25.8549   22.7941   18.3789 C   0  0  0  0  0  0  0  0  0  0  0  0
   27.0830   22.7799   19.0372 C   0  0  0  0  0  0  0  0  0  0  0  0
   27.2237   22.1888   20.2988 C   0  0  0  0  0  0  0  0  0  0  0  0
   28.5294   22.2673   21.0346 C   0  0  0  0  0  0  0  0  0  0  0  0
   28.4890   22.4069   22.1916 O   0  0  0  0  0  0  0  0  0  0  0  0
   29.7354   22.2251   20.0746 N   0  0  0  0  0  0  0  0  0  0  0  0
   31.1506   22.4426   20.3260 C   0  0  1  0  0  0  0  0  0  0  0  0
   32.0118   21.4436   19.5413 C   0  0  0  0  0  0  0  0  0  0  0  0
   32.6628   22.0588   18.3012 C   0  0  0  0  0  0  0  0  0  0  0  0
   31.7545   23.0847   17.6322 C   0  0  0  0  0  0  0  0  0  0  0  0
   31.3309   24.1771   18.5123 N   0  0  0  0  0  0  0  0  0  0  0  0
   31.5189   23.8906   19.9474 C   0  0  0  0  0  0  0  0  0  0  0  0
   26.1096   21.6090   20.9465 C   0  0  0  0  0  0  0  0  0  0  0  0
   24.8531   21.6447   20.3056 C   0  0  0  0  0  0  0  0  0  0  0  0
  1  2  1  0
  2  3  1  0
  3  4  1  0
  4  5  2  0
  5  6  1  0
  6  7  1  0
  7  8  2  0
  8  9  1  0
  9 10  2  0
 10 11  1  0
 11 12  2  0
 11 13  1  0
 14 13  1  6
 14 15  1  0
 15 16  1  0
 16 17  1  0
 17 18  1  0
 18 19  1  0
 10 20  1  0
 20 21  2  0
 21  4  1  0
 21  7  1  0
 19 14  1  0
M  END
>  <ref_pdb>  (420) 
A4836a

>  <subsites>  (420) 
1 - Active Site,5 - A3181/A/202/1

>  <HIPPO Compound ID>  (420) 
64592

>  <energy_score>  (420) 
-23.452818

>  <fragmenstein_mode>  (420) 
expansion

>  <scratch_subdir>  (420) 
/opt/xchem-fragalysis-2/maxwin/BulkDock/SCRATCH/512186/C46321-P481

>  <smiles>  (420) 
CCCc1n[nH]c2ccc(C(=O)N[C@H]3CCCNC3)cc12

>  <alias>  (420) 
C46321-P481

>  <ref_mols>  (420) 
A3181b,A4836a

>  <inspiration_score>  (420) 
None

>  <tags>  (420) 
BulkDock Fragalysis export,fragmenstein_placed,openbind_a71ev2a_c1_scaffolds,openbind_a71ev2a_c1_knitwork_pure

>  <fragmenstein_outcome>  (420) 
acceptable

>  <fragmenstein_error>  (420) 


>  <distance_score>  (420) 
0.822877

>  <inchikey>  (420) 
VAGNKVBSAUXXJB-UHFFFAOYSA-N

>  <name>  (420) 
C46321-P481

>  <HIPPO Pose ID>  (420) 
320510

>  <Energy>  (420) 
59.142535

>  <exports>  (420) 
['/opt/xchem-fragalysis-2/maxwin/BulkDock/OUTPUTS/openbind_a71ev2a_c1_knitwork_pure_165VWF8.sdf', '/opt/xchem-fragalysis-2/maxwin/BulkDock/OUTPUTS/openbind_a71ev2a_c1_knitwork_pure_1B07PTU.sdf', '/opt/xchem-fragalysis-2/maxwin/BulkDock/OUTPUTS/openbind_a71ev2a_c1_knitwork_pure_1B07UWE.sdf', '/opt/xchem-fragalysis-2/maxwin/openbind-hippo/a71ev2a/openbind_a71ev2a_c1_scaffold_products.sdf', '/opt/xchem-fragalysis-2/maxwin/openbind-hippo/a71ev2a/cycle_01/bulkdock/openbind_a71ev2a_c1_scaffold_products.sdf', '/opt/xchem-fragalysis-2/maxwin/openbind-hippo/a71ev2a/cycle_01/bulkdock/openbind_a71ev2a_c1_scaffolds.sdf']

>  <fragmenstein_runtime>  (420) 
2.578086

$$$$
C46327-P481
     RDKit          3D

 18 20  0  0  0  0  0  0  0  0999 V2000
   27.2820   21.6939   20.7604 C   0  0  0  0  0  0  0  0  0  0  0  0
   27.3103   22.2729   19.4916 C   0  0  0  0  0  0  0  0  0  0  0  0
   26.1380   22.4733   18.7370 C   0  0  0  0  0  0  0  0  0  0  0  0
   26.2142   23.0966   17.3653 C   0  0  0  0  0  0  0  0  0  0  0  0
   26.3887   24.5456   17.4704 N   0  0  0  0  0  0  0  0  0  0  0  0
   26.3985   25.1673   16.1449 C   0  0  0  0  0  0  0  0  0  0  0  0
   26.6176   26.6896   16.2366 C   0  0  2  0  0  0  0  0  0  0  0  0
   25.4913   27.3986   17.0127 C   0  0  0  0  0  0  0  0  0  0  0  0
   25.3301   28.8653   16.6100 C   0  0  0  0  0  0  0  0  0  0  0  0
   26.6193   29.4349   16.0323 C   0  0  0  0  0  0  0  0  0  0  0  0
   27.0474   28.7294   14.8240 N   0  0  0  0  0  0  0  0  0  0  0  0
   26.7533   27.2934   14.8308 C   0  0  0  0  0  0  0  0  0  0  0  0
   24.9415   22.0610   19.3524 C   0  0  0  0  0  0  0  0  0  0  0  0
   23.6388   22.0897   18.9186 N   0  0  0  0  0  0  0  0  0  0  0  0
   22.7566   21.5329   19.7749 N   0  0  0  0  0  0  0  0  0  0  0  0
   23.5228   21.1702   20.8071 C   0  0  0  0  0  0  0  0  0  0  0  0
   24.8909   21.4562   20.6037 C   0  0  0  0  0  0  0  0  0  0  0  0
   26.0787   21.2648   21.3275 C   0  0  0  0  0  0  0  0  0  0  0  0
  1  2  2  0
  2  3  1  0
  3  4  1  0
  4  5  1  0
  5  6  1  0
  7  6  1  6
  7  8  1  0
  8  9  1  0
  9 10  1  0
 10 11  1  0
 11 12  1  0
  3 13  2  0
 13 14  1  0
 14 15  1  0
 15 16  2  0
 16 17  1  0
 17 18  2  0
 18  1  1  0
 12  7  1  0
 17 13  1  0
M  END
>  <ref_pdb>  (421) 
A4836a

>  <subsites>  (421) 
1 - Active Site,5 - A3181/A/202/1

>  <HIPPO Compound ID>  (421) 
29898

>  <energy_score>  (421) 
-37.515165

>  <fragmenstein_mode>  (421) 
expansion

>  <scratch_subdir>  (421) 
/opt/xchem-fragalysis-2/maxwin/BulkDock/SCRATCH/512186/C46327-P481

>  <smiles>  (421) 
c1cc(CNC[C@@H]2CCCNC2)c2[nH]ncc2c1

>  <alias>  (421) 
C46327-P481

>  <ref_mols>  (421) 
A3181b,A4836a

>  <inspiration_score>  (421) 
None

>  <tags>  (421) 
BulkDock Fragalysis export,fragmenstein_placed,openbind_a71ev2a_c1_scaffolds,openbind_a71ev2a_c1_knitwork_pure

>  <fragmenstein_outcome>  (421) 
acceptable

>  <fragmenstein_error>  (421) 


>  <distance_score>  (421) 
0.615176

>  <inchikey>  (421) 
BGICKWFMKMWXKW-UHFFFAOYSA-N

>  <name>  (421) 
C46327-P481

>  <HIPPO Pose ID>  (421) 
320513

>  <Energy>  (421) 
32.753713

>  <exports>  (421) 
['/opt/xchem-fragalysis-2/maxwin/BulkDock/OUTPUTS/openbind_a71ev2a_c1_knitwork_pure_165VWF8.sdf', '/opt/xchem-fragalysis-2/maxwin/BulkDock/OUTPUTS/openbind_a71ev2a_c1_knitwork_pure_1B07PTU.sdf', '/opt/xchem-fragalysis-2/maxwin/BulkDock/OUTPUTS/openbind_a71ev2a_c1_knitwork_pure_1B07UWE.sdf', '/opt/xchem-fragalysis-2/maxwin/openbind-hippo/a71ev2a/openbind_a71ev2a_c1_scaffold_products.sdf', '/opt/xchem-fragalysis-2/maxwin/openbind-hippo/a71ev2a/cycle_01/bulkdock/openbind_a71ev2a_c1_scaffold_products.sdf', '/opt/xchem-fragalysis-2/maxwin/openbind-hippo/a71ev2a/cycle_01/bulkdock/openbind_a71ev2a_c1_scaffolds.sdf']

>  <fragmenstein_runtime>  (421) 
1.239748

$$$$
C46328-P481
     RDKit          3D

 19 21  0  0  0  0  0  0  0  0999 V2000
   28.1785   21.8509   22.9888 O   0  0  0  0  0  0  0  0  0  0  0  0
   28.1499   22.5521   22.0589 C   0  0  0  0  0  0  0  0  0  0  0  0
   29.0528   23.7387   21.6757 N   0  0  0  0  0  0  0  0  0  0  0  0
   30.1246   24.3739   22.4032 C   0  0  0  0  0  0  0  0  0  0  0  0
   31.4972   24.0898   21.7832 C   0  0  2  0  0  0  0  0  0  0  0  0
   31.8452   22.5916   21.8341 C   0  0  0  0  0  0  0  0  0  0  0  0
   33.3507   22.3351   21.8993 C   0  0  0  0  0  0  0  0  0  0  0  0
   34.1365   23.4638   21.2450 C   0  0  0  0  0  0  0  0  0  0  0  0
   33.9138   24.7607   21.8907 N   0  0  0  0  0  0  0  0  0  0  0  0
   32.5837   24.9148   22.4836 C   0  0  0  0  0  0  0  0  0  0  0  0
   27.0702   22.3223   21.0456 C   0  0  0  0  0  0  0  0  0  0  0  0
   27.2607   22.5553   19.6766 C   0  0  0  0  0  0  0  0  0  0  0  0
   26.1881   22.4869   18.7796 C   0  0  0  0  0  0  0  0  0  0  0  0
   24.9404   22.1382   19.3058 C   0  0  0  0  0  0  0  0  0  0  0  0
   23.7047   22.0250   18.7206 N   0  0  0  0  0  0  0  0  0  0  0  0
   22.7472   21.5529   19.5487 N   0  0  0  0  0  0  0  0  0  0  0  0
   23.3846   21.4321   20.7164 C   0  0  0  0  0  0  0  0  0  0  0  0
   24.7481   21.7875   20.6349 C   0  0  0  0  0  0  0  0  0  0  0  0
   25.8278   21.8698   21.5262 C   0  0  0  0  0  0  0  0  0  0  0  0
  1  2  2  0
  2  3  1  0
  3  4  1  0
  5  4  1  1
  5  6  1  0
  6  7  1  0
  7  8  1  0
  8  9  1  0
  9 10  1  0
  2 11  1  0
 11 12  2  0
 12 13  1  0
 13 14  2  0
 14 15  1  0
 15 16  1  0
 16 17  2  0
 17 18  1  0
 18 19  2  0
 10  5  1  0
 19 11  1  0
 18 14  1  0
M  END
>  <ref_pdb>  (422) 
A4836a

>  <subsites>  (422) 
1 - Active Site,5 - A3181/A/202/1

>  <HIPPO Compound ID>  (422) 
107313

>  <energy_score>  (422) 
-16.108498

>  <fragmenstein_mode>  (422) 
expansion

>  <scratch_subdir>  (422) 
/opt/xchem-fragalysis-2/maxwin/BulkDock/SCRATCH/512186/C46328-P481

>  <smiles>  (422) 
O=C(NC[C@@H]1CCCNC1)c1ccc2[nH]ncc2c1

>  <alias>  (422) 
C46328-P481

>  <ref_mols>  (422) 
A3181b,A4836a

>  <inspiration_score>  (422) 
None

>  <tags>  (422) 
BulkDock Fragalysis export,fragmenstein_placed,openbind_a71ev2a_c1_scaffolds,openbind_a71ev2a_c1_knitwork_pure

>  <fragmenstein_outcome>  (422) 
acceptable

>  <fragmenstein_error>  (422) 


>  <distance_score>  (422) 
0.91076

>  <inchikey>  (422) 
RZWXIWQSDZYYOP-UHFFFAOYSA-N

>  <name>  (422) 
C46328-P481

>  <HIPPO Pose ID>  (422) 
320514

>  <Energy>  (422) 
43.272956

>  <exports>  (422) 
['/opt/xchem-fragalysis-2/maxwin/BulkDock/OUTPUTS/openbind_a71ev2a_c1_knitwork_pure_165VWF8.sdf', '/opt/xchem-fragalysis-2/maxwin/BulkDock/OUTPUTS/openbind_a71ev2a_c1_knitwork_pure_1B07PTU.sdf', '/opt/xchem-fragalysis-2/maxwin/BulkDock/OUTPUTS/openbind_a71ev2a_c1_knitwork_pure_1B07UWE.sdf', '/opt/xchem-fragalysis-2/maxwin/openbind-hippo/a71ev2a/openbind_a71ev2a_c1_scaffold_products.sdf', '/opt/xchem-fragalysis-2/maxwin/openbind-hippo/a71ev2a/cycle_01/bulkdock/openbind_a71ev2a_c1_scaffold_products.sdf', '/opt/xchem-fragalysis-2/maxwin/openbind-hippo/a71ev2a/cycle_01/bulkdock/openbind_a71ev2a_c1_scaffolds.sdf']

>  <fragmenstein_runtime>  (422) 
2.119763

$$$$
C46349-P481
     RDKit          3D

 20 22  0  0  0  0  0  0  0  0999 V2000
   31.4354   23.6059   17.0618 O   0  0  0  0  0  0  0  0  0  0  0  0
   31.8278   22.9610   17.9895 C   0  0  0  0  0  0  0  0  0  0  0  0
   31.2130   22.6687   19.2556 N   0  0  0  0  0  0  0  0  0  0  0  0
   29.8966   22.9807   19.7640 C   0  0  0  0  0  0  0  0  0  0  0  0
   28.8530   22.0710   19.1168 C   0  0  0  0  0  0  0  0  0  0  0  0
   27.4589   22.1589   19.6937 C   0  0  0  0  0  0  0  0  0  0  0  0
   27.2239   21.9244   21.0566 C   0  0  0  0  0  0  0  0  0  0  0  0
   25.9221   21.8510   21.5741 C   0  0  0  0  0  0  0  0  0  0  0  0
   24.8373   22.0011   20.6960 C   0  0  0  0  0  0  0  0  0  0  0  0
   23.4298   21.9416   20.7895 C   0  0  0  0  0  0  0  0  0  0  0  0
   22.8217   22.1171   19.6127 N   0  0  0  0  0  0  0  0  0  0  0  0
   23.8494   22.3319   18.7631 N   0  0  0  0  0  0  0  0  0  0  0  0
   25.0840   22.2641   19.3566 C   0  0  0  0  0  0  0  0  0  0  0  0
   26.3735   22.3648   18.8241 C   0  0  0  0  0  0  0  0  0  0  0  0
   33.2042   22.2690   17.9291 C   0  0  2  0  0  0  0  0  0  0  0  0
   34.2057   22.9248   18.9011 C   0  0  0  0  0  0  0  0  0  0  0  0
   35.3586   23.5980   18.1616 C   0  0  0  0  0  0  0  0  0  0  0  0
   36.0323   22.6456   17.1686 C   0  0  0  0  0  0  0  0  0  0  0  0
   35.1123   21.7469   16.4663 N   0  0  0  0  0  0  0  0  0  0  0  0
   33.7338   22.2408   16.4865 C   0  0  0  0  0  0  0  0  0  0  0  0
  1  2  2  0
  2  3  1  0
  3  4  1  0
  4  5  1  0
  5  6  1  0
  6  7  2  0
  7  8  1  0
  8  9  2  0
  9 10  1  0
 10 11  2  0
 11 12  1  0
 12 13  1  0
 13 14  2  0
 15  2  1  6
 15 16  1  0
 16 17  1  0
 17 18  1  0
 18 19  1  0
 19 20  1  0
 14  6  1  0
 20 15  1  0
 13  9  1  0
M  END
>  <ref_pdb>  (423) 
A4836a

>  <subsites>  (423) 
1 - Active Site,5 - A3181/A/202/1

>  <HIPPO Compound ID>  (423) 
46497

>  <energy_score>  (423) 
-19.719274

>  <fragmenstein_mode>  (423) 
expansion

>  <scratch_subdir>  (423) 
/opt/xchem-fragalysis-2/maxwin/BulkDock/SCRATCH/512186/C46349-P481

>  <smiles>  (423) 
O=C(NCCc1ccc2cn[nH]c2c1)[C@@H]1CCCNC1

>  <alias>  (423) 
C46349-P481

>  <ref_mols>  (423) 
A3181b,A4836a

>  <inspiration_score>  (423) 
None

>  <tags>  (423) 
BulkDock Fragalysis export,fragmenstein_placed,openbind_a71ev2a_c1_scaffolds,openbind_a71ev2a_c1_knitwork_pure

>  <fragmenstein_outcome>  (423) 
acceptable

>  <fragmenstein_error>  (423) 


>  <distance_score>  (423) 
0.938384

>  <inchikey>  (423) 
NHTIISPGTDJACN-UHFFFAOYSA-N

>  <name>  (423) 
C46349-P481

>  <HIPPO Pose ID>  (423) 
320520

>  <Energy>  (423) 
34.434702

>  <exports>  (423) 
['/opt/xchem-fragalysis-2/maxwin/BulkDock/OUTPUTS/openbind_a71ev2a_c1_knitwork_pure_165VWF8.sdf', '/opt/xchem-fragalysis-2/maxwin/BulkDock/OUTPUTS/openbind_a71ev2a_c1_knitwork_pure_1B07PTU.sdf', '/opt/xchem-fragalysis-2/maxwin/BulkDock/OUTPUTS/openbind_a71ev2a_c1_knitwork_pure_1B07UWE.sdf', '/opt/xchem-fragalysis-2/maxwin/openbind-hippo/a71ev2a/openbind_a71ev2a_c1_scaffold_products.sdf', '/opt/xchem-fragalysis-2/maxwin/openbind-hippo/a71ev2a/cycle_01/bulkdock/openbind_a71ev2a_c1_scaffold_products.sdf', '/opt/xchem-fragalysis-2/maxwin/openbind-hippo/a71ev2a/cycle_01/bulkdock/openbind_a71ev2a_c1_scaffolds.sdf']

>  <fragmenstein_runtime>  (423) 
1.971179

$$$$
C46350-P481
     RDKit          3D

 22 24  0  0  0  0  0  0  0  0999 V2000
   23.2135   22.9282   17.6694 C   0  0  0  0  0  0  0  0  0  0  0  0
   23.6795   22.2909   18.8788 N   0  0  0  0  0  0  0  0  0  0  0  0
   22.7824   21.7692   19.7490 N   0  0  0  0  0  0  0  0  0  0  0  0
   23.5451   21.3449   20.7601 C   0  0  0  0  0  0  0  0  0  0  0  0
   24.9224   21.5609   20.5384 C   0  0  0  0  0  0  0  0  0  0  0  0
   26.1121   21.3126   21.2424 C   0  0  0  0  0  0  0  0  0  0  0  0
   27.3312   21.6672   20.6467 C   0  0  0  0  0  0  0  0  0  0  0  0
   27.3774   22.2285   19.3690 C   0  0  0  0  0  0  0  0  0  0  0  0
   28.6231   22.4517   18.7871 N   0  0  0  0  0  0  0  0  0  0  0  0
   29.0001   22.9273   17.3406 C   0  0  0  0  0  0  0  0  0  0  0  0
   28.3167   23.2744   16.4535 O   0  0  0  0  0  0  0  0  0  0  0  0
   30.5525   22.8557   17.2875 C   0  0  0  0  0  0  0  0  0  0  0  0
   30.9690   21.7628   18.0082 F   0  0  0  0  0  0  0  0  0  0  0  0
   31.1089   23.9224   17.9357 F   0  0  0  0  0  0  0  0  0  0  0  0
   31.1313   22.7537   15.8712 C   0  0  2  0  0  0  0  0  0  0  0  0
   32.6225   22.3739   15.9264 C   0  0  0  0  0  0  0  0  0  0  0  0
   33.2406   22.3706   14.5311 C   0  0  0  0  0  0  0  0  0  0  0  0
   32.9873   23.6927   13.8149 C   0  0  0  0  0  0  0  0  0  0  0  0
   31.5597   24.0036   13.7523 N   0  0  0  0  0  0  0  0  0  0  0  0
   30.9641   24.0686   15.0928 C   0  0  0  0  0  0  0  0  0  0  0  0
   26.2000   22.5154   18.6765 C   0  0  0  0  0  0  0  0  0  0  0  0
   24.9852   22.1707   19.2899 C   0  0  0  0  0  0  0  0  0  0  0  0
  1  2  1  0
  2  3  1  0
  3  4  2  0
  4  5  1  0
  5  6  2  0
  6  7  1  0
  7  8  2  0
  8  9  1  0
  9 10  1  0
 10 11  2  0
 10 12  1  0
 12 13  1  0
 12 14  1  0
 15 12  1  1
 15 16  1  0
 16 17  1  0
 17 18  1  0
 18 19  1  0
 19 20  1  0
  8 21  1  0
 21 22  2  0
 22  2  1  0
 22  5  1  0
 20 15  1  0
M  END
>  <ref_pdb>  (424) 
A4836a

>  <subsites>  (424) 
1 - Active Site,5 - A3181/A/202/1

>  <HIPPO Compound ID>  (424) 
45845

>  <energy_score>  (424) 
-44.860551

>  <fragmenstein_mode>  (424) 
expansion

>  <scratch_subdir>  (424) 
/opt/xchem-fragalysis-2/maxwin/BulkDock/SCRATCH/512186/C46350-P481

>  <smiles>  (424) 
Cn1ncc2ccc(NC(=O)C(F)(F)[C@@H]3CCCNC3)cc21

>  <alias>  (424) 
C46350-P481

>  <ref_mols>  (424) 
A3181b,A4836a

>  <inspiration_score>  (424) 
None

>  <tags>  (424) 
BulkDock Fragalysis export,fragmenstein_placed,openbind_a71ev2a_c1_scaffolds,openbind_a71ev2a_c1_knitwork_pure

>  <fragmenstein_outcome>  (424) 
acceptable

>  <fragmenstein_error>  (424) 


>  <distance_score>  (424) 
0.619376

>  <inchikey>  (424) 
MLATWPCEIWLAON-UHFFFAOYSA-N

>  <name>  (424) 
C46350-P481

>  <HIPPO Pose ID>  (424) 
320521

>  <Energy>  (424) 
79.420797

>  <exports>  (424) 
['/opt/xchem-fragalysis-2/maxwin/BulkDock/OUTPUTS/openbind_a71ev2a_c1_knitwork_pure_165VWF8.sdf', '/opt/xchem-fragalysis-2/maxwin/BulkDock/OUTPUTS/openbind_a71ev2a_c1_knitwork_pure_1B07PTU.sdf', '/opt/xchem-fragalysis-2/maxwin/BulkDock/OUTPUTS/openbind_a71ev2a_c1_knitwork_pure_1B07UWE.sdf', '/opt/xchem-fragalysis-2/maxwin/openbind-hippo/a71ev2a/openbind_a71ev2a_c1_scaffold_products.sdf', '/opt/xchem-fragalysis-2/maxwin/openbind-hippo/a71ev2a/cycle_01/bulkdock/openbind_a71ev2a_c1_scaffold_products.sdf', '/opt/xchem-fragalysis-2/maxwin/openbind-hippo/a71ev2a/cycle_01/bulkdock/openbind_a71ev2a_c1_scaffolds.sdf']

>  <fragmenstein_runtime>  (424) 
2.031636

$$$$
C46353-P481
     RDKit          3D

 17 19  0  0  0  0  0  0  0  0999 V2000
   27.2877   21.6588   20.6621 C   0  0  0  0  0  0  0  0  0  0  0  0
   27.2395   22.3414   19.4438 C   0  0  0  0  0  0  0  0  0  0  0  0
   26.0233   22.5903   18.7840 C   0  0  0  0  0  0  0  0  0  0  0  0
   25.9692   23.3173   17.4633 C   0  0  0  0  0  0  0  0  0  0  0  0
   25.0202   24.4353   17.5355 N   0  0  0  0  0  0  0  0  0  0  0  0
   24.6937   25.0370   16.2312 C   0  0  2  0  0  0  0  0  0  0  0  0
   23.6013   24.2220   15.5150 C   0  0  0  0  0  0  0  0  0  0  0  0
   23.6048   24.4457   14.0013 C   0  0  0  0  0  0  0  0  0  0  0  0
   24.1197   25.8325   13.6332 C   0  0  0  0  0  0  0  0  0  0  0  0
   25.4904   26.0887   14.0842 N   0  0  0  0  0  0  0  0  0  0  0  0
   25.8764   25.3213   15.2767 C   0  0  0  0  0  0  0  0  0  0  0  0
   24.8790   22.0768   19.4176 C   0  0  0  0  0  0  0  0  0  0  0  0
   23.5597   22.1247   19.0442 N   0  0  0  0  0  0  0  0  0  0  0  0
   22.7270   21.4576   19.8735 N   0  0  0  0  0  0  0  0  0  0  0  0
   23.5464   21.0264   20.8385 C   0  0  0  0  0  0  0  0  0  0  0  0
   24.8987   21.3681   20.6097 C   0  0  0  0  0  0  0  0  0  0  0  0
   26.1251   21.1552   21.2581 C   0  0  0  0  0  0  0  0  0  0  0  0
  1  2  2  0
  2  3  1  0
  3  4  1  0
  4  5  1  0
  6  5  1  1
  6  7  1  0
  7  8  1  0
  8  9  1  0
  9 10  1  0
 10 11  1  0
  3 12  2  0
 12 13  1  0
 13 14  1  0
 14 15  2  0
 15 16  1  0
 16 17  2  0
 17  1  1  0
 11  6  1  0
 16 12  1  0
M  END
>  <ref_pdb>  (425) 
A4836a

>  <subsites>  (425) 
1 - Active Site,5 - A3181/A/202/1

>  <HIPPO Compound ID>  (425) 
45801

>  <energy_score>  (425) 
-38.314899

>  <fragmenstein_mode>  (425) 
expansion

>  <scratch_subdir>  (425) 
/opt/xchem-fragalysis-2/maxwin/BulkDock/SCRATCH/512186/C46353-P481

>  <smiles>  (425) 
c1cc(CN[C@@H]2CCCNC2)c2[nH]ncc2c1

>  <alias>  (425) 
C46353-P481

>  <ref_mols>  (425) 
A3181b,A4836a

>  <inspiration_score>  (425) 
None

>  <tags>  (425) 
BulkDock Fragalysis export,fragmenstein_placed,openbind_a71ev2a_c1_scaffolds,openbind_a71ev2a_c1_knitwork_pure

>  <fragmenstein_outcome>  (425) 
acceptable

>  <fragmenstein_error>  (425) 


>  <distance_score>  (425) 
0.649725

>  <inchikey>  (425) 
FFOQKKOHSFRDDO-UHFFFAOYSA-N

>  <name>  (425) 
C46353-P481

>  <HIPPO Pose ID>  (425) 
320522

>  <Energy>  (425) 
48.133899

>  <exports>  (425) 
['/opt/xchem-fragalysis-2/maxwin/BulkDock/OUTPUTS/openbind_a71ev2a_c1_knitwork_pure_165VWF8.sdf', '/opt/xchem-fragalysis-2/maxwin/BulkDock/OUTPUTS/openbind_a71ev2a_c1_knitwork_pure_1B07PTU.sdf', '/opt/xchem-fragalysis-2/maxwin/BulkDock/OUTPUTS/openbind_a71ev2a_c1_knitwork_pure_1B07UWE.sdf', '/opt/xchem-fragalysis-2/maxwin/openbind-hippo/a71ev2a/openbind_a71ev2a_c1_scaffold_products.sdf', '/opt/xchem-fragalysis-2/maxwin/openbind-hippo/a71ev2a/cycle_01/bulkdock/openbind_a71ev2a_c1_scaffold_products.sdf', '/opt/xchem-fragalysis-2/maxwin/openbind-hippo/a71ev2a/cycle_01/bulkdock/openbind_a71ev2a_c1_scaffolds.sdf']

>  <fragmenstein_runtime>  (425) 
1.192123

$$$$
C45903-P444
     RDKit          3D

 21 23  0  0  0  0  0  0  0  0999 V2000
   23.1400   17.7819   20.4359 O   0  0  0  0  0  0  0  0  0  0  0  0
   22.8159   18.4437   21.6590 C   0  0  1  0  0  0  0  0  0  0  0  0
   23.9547   19.3962   22.0334 C   0  0  0  0  0  0  0  0  0  0  0  0
   25.3109   18.6894   22.0536 C   0  0  0  0  0  0  0  0  0  0  0  0
   26.4466   19.4819   22.5497 N   0  0  0  0  0  0  0  0  0  0  0  0
   26.7123   20.7005   21.9052 C   0  0  0  0  0  0  0  0  0  0  0  0
   25.9601   21.8122   22.1912 C   0  0  0  0  0  0  0  0  0  0  0  0
   26.4170   22.9909   21.6733 C   0  0  0  0  0  0  0  0  0  0  0  0
   27.5365   23.0951   20.9434 N   0  0  0  0  0  0  0  0  0  0  0  0
   28.2200   21.9670   20.6905 C   0  0  0  0  0  0  0  0  0  0  0  0
   29.4166   22.0621   19.9669 N   0  0  0  0  0  0  0  0  0  0  0  0
   29.5576   20.9681   19.0124 C   0  0  0  0  0  0  0  0  0  0  0  0
   30.5614   21.2913   17.8992 C   0  0  0  0  0  0  0  0  0  0  0  0
   31.7253   22.1565   18.3563 C   0  0  0  0  0  0  0  0  0  0  0  0
   31.2702   23.3967   19.1275 C   0  0  0  0  0  0  0  0  0  0  0  0
   29.7851   23.3884   19.5033 C   0  0  0  0  0  0  0  0  0  0  0  0
   27.8150   20.7623   21.1425 N   0  0  0  0  0  0  0  0  0  0  0  0
   21.4681   19.1283   21.4532 C   0  0  0  0  0  0  0  0  0  0  0  0
   21.3036   20.2623   20.4015 C   0  0  0  0  0  0  0  0  0  0  0  0
   20.2137   20.8498   21.3239 C   0  0  0  0  0  0  0  0  0  0  0  0
   20.9235   20.1411   22.4981 C   0  0  0  0  0  0  0  0  0  0  0  0
  2  1  1  6
  2  3  1  0
  3  4  1  0
  4  5  1  0
  5  6  1  0
  6  7  2  0
  7  8  1  0
  8  9  2  0
  9 10  1  0
 10 11  1  0
 11 12  1  0
 12 13  1  0
 13 14  1  0
 14 15  1  0
 15 16  1  0
 10 17  2  0
  2 18  1  0
 18 19  1  0
 19 20  1  0
 20 21  1  0
 17  6  1  0
 21 18  1  0
 16 11  1  0
M  END
>  <ref_pdb>  (426) 
A4712a

>  <subsites>  (426) 
1 - Active Site,5 - A3181/A/202/1

>  <HIPPO Compound ID>  (426) 
70091

>  <energy_score>  (426) 
-32.88145

>  <fragmenstein_mode>  (426) 
expansion

>  <scratch_subdir>  (426) 
/opt/xchem-fragalysis-2/maxwin/BulkDock/SCRATCH/511258/C45903-P444

>  <smiles>  (426) 
O[C@@H](CCNc1ccnc(N2CCCCC2)n1)C1CCC1

>  <alias>  (426) 
C45903-P444

>  <ref_mols>  (426) 
A4712a,A1146a

>  <inspiration_score>  (426) 
None

>  <tags>  (426) 
BulkDock Fragalysis export,fragmenstein_placed,openbind_a71ev2a_c1_scaffolds,openbind_a71ev2a_c1_knitwork_pure

>  <fragmenstein_outcome>  (426) 
acceptable

>  <fragmenstein_error>  (426) 


>  <distance_score>  (426) 
0.891372

>  <inchikey>  (426) 
WCZFMVGDBUJSBO-UHFFFAOYSA-N

>  <name>  (426) 
C45903-P444

>  <HIPPO Pose ID>  (426) 
323249

>  <Energy>  (426) 
-83.193134

>  <exports>  (426) 
['/opt/xchem-fragalysis-2/maxwin/BulkDock/OUTPUTS/openbind_a71ev2a_c1_knitwork_pure_165VWF8.sdf', '/opt/xchem-fragalysis-2/maxwin/BulkDock/OUTPUTS/openbind_a71ev2a_c1_knitwork_pure_1B07PTU.sdf', '/opt/xchem-fragalysis-2/maxwin/BulkDock/OUTPUTS/openbind_a71ev2a_c1_knitwork_pure_1B07UWE.sdf', '/opt/xchem-fragalysis-2/maxwin/openbind-hippo/a71ev2a/openbind_a71ev2a_c1_scaffold_products.sdf', '/opt/xchem-fragalysis-2/maxwin/openbind-hippo/a71ev2a/cycle_01/bulkdock/openbind_a71ev2a_c1_scaffold_products.sdf', '/opt/xchem-fragalysis-2/maxwin/openbind-hippo/a71ev2a/cycle_01/bulkdock/openbind_a71ev2a_c1_scaffolds.sdf']

>  <fragmenstein_runtime>  (426) 
140.536302

$$$$
C45662-P441
     RDKit          3D

 22 24  0  0  0  0  0  0  0  0999 V2000
    4.5392   14.9053    3.8520 O   0  0  0  0  0  0  0  0  0  0  0  0
    4.6264   13.7498    3.6976 C   0  0  0  0  0  0  0  0  0  0  0  0
    5.7675   12.7639    4.0868 N   0  0  0  0  0  0  0  0  0  0  0  0
    7.2319   13.0468    4.7290 S   0  0  0  0  0  0  0  0  0  0  0  0
    7.7500   11.7448    5.0777 O   0  0  0  0  0  0  0  0  0  0  0  0
    7.1139   14.0507    5.7697 O   0  0  0  0  0  0  0  0  0  0  0  0
    8.2164   13.7048    3.4025 C   0  0  2  0  0  0  0  0  0  0  0  0
    7.7129   15.0252    2.8446 C   0  0  0  0  0  0  0  0  0  0  0  0
    8.7349   15.6062    1.8662 C   0  0  0  0  0  0  0  0  0  0  0  0
    9.6617   14.5431    1.2584 C   0  0  0  0  0  0  0  0  0  0  0  0
    8.9707   13.2778    1.0474 N   0  0  0  0  0  0  0  0  0  0  0  0
    8.4387   12.6855    2.2857 C   0  0  0  0  0  0  0  0  0  0  0  0
    3.4988   13.0184    3.1192 C   0  0  0  0  0  0  0  0  0  0  0  0
    2.3924   13.5955    2.4496 C   0  0  0  0  0  0  0  0  0  0  0  0
    1.4951   12.6939    2.0493 N   0  0  0  0  0  0  0  0  0  0  0  0
    1.9995   11.5237    2.4803 N   0  0  0  0  0  0  0  0  0  0  0  0
    1.2750   10.2785    2.2733 C   0  0  0  0  0  0  0  0  0  0  0  0
    1.1449    9.9100    0.7852 C   0  0  0  0  0  0  0  0  0  0  0  0
   -0.3132    9.5119    0.5933 C   0  0  0  0  0  0  0  0  0  0  0  0
   -1.0572   10.3639    1.6068 C   0  0  0  0  0  0  0  0  0  0  0  0
   -0.1566   10.3097    2.8331 C   0  0  0  0  0  0  0  0  0  0  0  0
    3.2043   11.6657    3.1175 C   0  0  0  0  0  0  0  0  0  0  0  0
  1  2  2  0
  2  3  1  0
  3  4  1  0
  4  5  2  0
  4  6  2  0
  7  4  1  1
  7  8  1  0
  8  9  1  0
  9 10  1  0
 10 11  1  0
 11 12  1  0
  2 13  1  0
 13 14  1  0
 14 15  2  0
 15 16  1  0
 16 17  1  0
 17 18  1  0
 18 19  1  0
 19 20  1  0
 20 21  1  0
 16 22  1  0
 12  7  1  0
 22 13  2  0
 21 17  1  0
M  END
>  <ref_pdb>  (427) 
A4708a

>  <subsites>  (427) 
1 - Active Site,3 - A0541/A/147/1

>  <HIPPO Compound ID>  (427) 
102932

>  <energy_score>  (427) 
-36.6942

>  <fragmenstein_mode>  (427) 
expansion

>  <scratch_subdir>  (427) 
/opt/xchem-fragalysis-2/maxwin/BulkDock/SCRATCH/511258/C45662-P441

>  <smiles>  (427) 
O=C(NS(=O)(=O)[C@@H]1CCCNC1)c1cnn(C2CCCC2)c1

>  <alias>  (427) 
C45662-P441

>  <ref_mols>  (427) 
A4708a,A0717a

>  <inspiration_score>  (427) 
None

>  <tags>  (427) 
BulkDock Fragalysis export,fragmenstein_placed,openbind_a71ev2a_c1_scaffolds,openbind_a71ev2a_c1_knitwork_pure

>  <fragmenstein_outcome>  (427) 
acceptable

>  <fragmenstein_error>  (427) 


>  <distance_score>  (427) 
0.898711

>  <inchikey>  (427) 
YBCNZGDJWJHKOC-UHFFFAOYSA-N

>  <name>  (427) 
C45662-P441

>  <HIPPO Pose ID>  (427) 
324071

>  <Energy>  (427) 
-87.55413

>  <exports>  (427) 
['/opt/xchem-fragalysis-2/maxwin/BulkDock/OUTPUTS/openbind_a71ev2a_c1_knitwork_pure_165VWF8.sdf', '/opt/xchem-fragalysis-2/maxwin/BulkDock/OUTPUTS/openbind_a71ev2a_c1_knitwork_pure_1B07PTU.sdf', '/opt/xchem-fragalysis-2/maxwin/BulkDock/OUTPUTS/openbind_a71ev2a_c1_knitwork_pure_1B07UWE.sdf', '/opt/xchem-fragalysis-2/maxwin/openbind-hippo/a71ev2a/openbind_a71ev2a_c1_scaffold_products.sdf', '/opt/xchem-fragalysis-2/maxwin/openbind-hippo/a71ev2a/cycle_01/bulkdock/openbind_a71ev2a_c1_scaffold_products.sdf', '/opt/xchem-fragalysis-2/maxwin/openbind-hippo/a71ev2a/cycle_01/bulkdock/openbind_a71ev2a_c1_scaffolds.sdf']

>  <fragmenstein_runtime>  (427) 
104.304929

$$$$
C102905-P123
     RDKit          3D

 20 22  0  0  0  0  0  0  0  0999 V2000
   12.0443   14.3677   -1.5422 C   0  0  0  0  0  0  0  0  0  0  0  0
   10.6957   14.6093   -0.8682 C   0  0  2  0  0  0  0  0  0  0  0  0
   10.5522   16.3450   -0.3071 S   0  0  0  0  0  0  0  0  0  0  0  0
   11.6754   16.4004    1.0272 C   0  0  0  0  0  0  0  0  0  0  0  0
   11.3723   15.9513    2.2275 N   0  0  0  0  0  0  0  0  0  0  0  0
   12.3938   16.1645    3.1358 N   0  0  0  0  0  0  0  0  0  0  0  0
   13.4194   16.7730    2.5795 C   0  0  0  0  0  0  0  0  0  0  0  0
   13.2196   17.1400    0.9179 S   0  0  0  0  0  0  0  0  0  0  0  0
   10.4420   13.6104    0.2736 C   0  0  0  0  0  0  0  0  0  0  0  0
   11.2795   12.8958    0.6981 O   0  0  0  0  0  0  0  0  0  0  0  0
    8.9873   13.7963    0.7074 N   0  0  0  0  0  0  0  0  0  0  0  0
    8.0221   12.8156   -0.0817 C   0  0  0  0  0  0  0  0  0  0  0  0
    8.4694   11.3358   -0.1089 C   0  0  0  0  0  0  0  0  0  0  0  0
    8.7974   10.8408    1.2901 C   0  0  0  0  0  0  0  0  0  0  0  0
    8.2452   11.8540    2.2372 C   0  0  0  0  0  0  0  0  0  0  0  0
    7.6789   11.4744    3.4565 C   0  0  0  0  0  0  0  0  0  0  0  0
    7.1214   12.4351    4.2992 C   0  0  0  0  0  0  0  0  0  0  0  0
    7.1241   13.7774    3.9328 C   0  0  0  0  0  0  0  0  0  0  0  0
    7.6887   14.1637    2.7175 C   0  0  0  0  0  0  0  0  0  0  0  0
    8.2369   13.2104    1.8446 C   0  0  0  0  0  0  0  0  0  0  0  0
  2  1  1  1
  2  3  1  0
  3  4  1  0
  4  5  2  0
  5  6  1  0
  6  7  2  0
  7  8  1  0
  2  9  1  0
  9 10  2  0
  9 11  1  0
 11 12  1  0
 12 13  1  0
 13 14  1  0
 14 15  1  0
 15 16  2  0
 16 17  1  0
 17 18  2  0
 18 19  1  0
 19 20  2  0
  8  4  1  0
 20 11  1  0
 20 15  1  0
M  END
>  <ref_pdb>  (428) 
A1776a

>  <subsites>  (428) 
1 - Active Site,3 - A0541/A/147/1

>  <HIPPO Compound ID>  (428) 
48665

>  <energy_score>  (428) 
-31.832647

>  <fragmenstein_mode>  (428) 
expansion

>  <scratch_subdir>  (428) 
/opt/xchem-fragalysis-2/maxwin/BulkDock/SCRATCH/511258/C102905-P123

>  <smiles>  (428) 
C[C@H](Sc1nncs1)C(=O)N1CCCc2ccccc21

>  <alias>  (428) 
C102905-P123

>  <ref_mols>  (428) 
A1776a,A0586a

>  <inspiration_score>  (428) 
None

>  <tags>  (428) 
BulkDock Fragalysis export,fragmenstein_placed,openbind_a71ev2a_c1_scaffolds,openbind_a71ev2a_c1_knitwork_pure

>  <fragmenstein_outcome>  (428) 
acceptable

>  <fragmenstein_error>  (428) 


>  <distance_score>  (428) 
0.536369

>  <inchikey>  (428) 
CLFZGCHMMMECHQ-UHFFFAOYSA-N

>  <name>  (428) 
C102905-P123

>  <HIPPO Pose ID>  (428) 
324217

>  <Energy>  (428) 
115.184678

>  <exports>  (428) 
['/opt/xchem-fragalysis-2/maxwin/BulkDock/OUTPUTS/openbind_a71ev2a_c1_knitwork_pure_165VWF8.sdf', '/opt/xchem-fragalysis-2/maxwin/BulkDock/OUTPUTS/openbind_a71ev2a_c1_knitwork_pure_1B07PTU.sdf', '/opt/xchem-fragalysis-2/maxwin/BulkDock/OUTPUTS/openbind_a71ev2a_c1_knitwork_pure_1B07UWE.sdf', '/opt/xchem-fragalysis-2/maxwin/openbind-hippo/a71ev2a/openbind_a71ev2a_c1_scaffold_products.sdf', '/opt/xchem-fragalysis-2/maxwin/openbind-hippo/a71ev2a/cycle_01/bulkdock/openbind_a71ev2a_c1_scaffold_products.sdf', '/opt/xchem-fragalysis-2/maxwin/openbind-hippo/a71ev2a/cycle_01/bulkdock/openbind_a71ev2a_c1_scaffolds.sdf']

>  <fragmenstein_runtime>  (428) 
1.685251

$$$$
C81620-P174
     RDKit          3D

 12 12  0  0  0  0  0  0  0  0999 V2000
   10.2104   16.7025   19.0542 C   0  0  0  0  0  0  0  0  0  0  0  0
   11.5429   15.9697   18.9730 C   0  0  0  0  0  0  0  0  0  0  0  0
   11.3726   14.4756   18.9706 C   0  0  0  0  0  0  0  0  0  0  0  0
   12.5155   16.5041   19.9056 N   0  0  0  0  0  0  0  0  0  0  0  0
   13.2963   17.5880   19.5736 C   0  0  0  0  0  0  0  0  0  0  0  0
   14.1373   17.8971   20.5269 N   0  0  0  0  0  0  0  0  0  0  0  0
   13.9243   16.9418   21.4803 C   0  0  0  0  0  0  0  0  0  0  0  0
   12.9036   16.0706   21.1463 C   0  0  0  0  0  0  0  0  0  0  0  0
   12.4131   14.8641   21.8746 C   0  0  0  0  0  0  0  0  0  0  0  0
   10.9566   14.9228   22.3078 C   0  0  0  0  0  0  0  0  0  0  0  0
   10.4853   13.5614   22.7354 C   0  0  0  0  0  0  0  0  0  0  0  0
    9.7576   13.3806   23.7095 O   0  0  0  0  0  0  0  0  0  0  0  0
  1  2  1  0
  2  3  1  0
  2  4  1  0
  4  5  1  0
  5  6  2  0
  6  7  1  0
  7  8  2  0
  8  9  1  0
  9 10  1  0
 10 11  1  0
 11 12  2  0
  8  4  1  0
M  END
>  <ref_pdb>  (429) 
A3371a

>  <subsites>  (429) 
1 - Active Site

>  <HIPPO Compound ID>  (429) 
2016

>  <energy_score>  (429) 
-14.595382

>  <fragmenstein_mode>  (429) 
expansion

>  <scratch_subdir>  (429) 
/opt/xchem-fragalysis-2/maxwin/BulkDock/SCRATCH/511258/C81620-P174

>  <smiles>  (429) 
CC(C)n1cncc1CCC=O

>  <alias>  (429) 
C81620-P174

>  <ref_mols>  (429) 
A4237a,A3975a,A3371a

>  <inspiration_score>  (429) 
None

>  <tags>  (429) 
BulkDock Fragalysis export,fragmenstein_placed,openbind_a71ev2a_c1_scaffolds,openbind_a71ev2a_c1_knitwork_pure

>  <fragmenstein_outcome>  (429) 
acceptable

>  <fragmenstein_error>  (429) 


>  <distance_score>  (429) 
0.964424

>  <inchikey>  (429) 
DPASSUYVTHZQDV-UHFFFAOYSA-N

>  <name>  (429) 
C81620-P174

>  <HIPPO Pose ID>  (429) 
324436

>  <Energy>  (429) 
13.920285

>  <exports>  (429) 
['/opt/xchem-fragalysis-2/maxwin/BulkDock/OUTPUTS/openbind_a71ev2a_c1_knitwork_pure_165VWF8.sdf', '/opt/xchem-fragalysis-2/maxwin/BulkDock/OUTPUTS/openbind_a71ev2a_c1_knitwork_pure_1B07PTU.sdf', '/opt/xchem-fragalysis-2/maxwin/BulkDock/OUTPUTS/openbind_a71ev2a_c1_knitwork_pure_1B07UWE.sdf', '/opt/xchem-fragalysis-2/maxwin/openbind-hippo/a71ev2a/openbind_a71ev2a_c1_scaffold_products.sdf', '/opt/xchem-fragalysis-2/maxwin/openbind-hippo/a71ev2a/cycle_01/bulkdock/openbind_a71ev2a_c1_scaffold_products.sdf', '/opt/xchem-fragalysis-2/maxwin/openbind-hippo/a71ev2a/cycle_01/bulkdock/openbind_a71ev2a_c1_scaffolds.sdf']

>  <fragmenstein_runtime>  (429) 
2.901326

$$$$
C5573-P103
     RDKit          3D

 15 17  0  0  0  0  0  0  0  0999 V2000
   14.2232   -4.5270   17.4548 C   0  0  0  0  0  0  0  0  0  0  0  0
   15.4477   -4.0432   17.9166 C   0  0  0  0  0  0  0  0  0  0  0  0
   16.5721   -4.8866   18.0633 C   0  0  0  0  0  0  0  0  0  0  0  0
   17.8176   -4.4141   18.6771 C   0  0  0  0  0  0  0  0  0  0  0  0
   18.3532   -5.0388   19.8132 C   0  0  0  0  0  0  0  0  0  0  0  0
   19.4670   -4.4923   20.4275 C   0  0  0  0  0  0  0  0  0  0  0  0
   20.0963   -3.3882   19.9837 N   0  0  0  0  0  0  0  0  0  0  0  0
   19.5960   -2.8220   18.8650 C   0  0  0  0  0  0  0  0  0  0  0  0
   18.4794   -3.2877   18.1903 C   0  0  0  0  0  0  0  0  0  0  0  0
   16.4248   -6.2397   17.6847 C   0  0  0  0  0  0  0  0  0  0  0  0
   17.2622   -7.3779   17.5975 C   0  0  0  0  0  0  0  0  0  0  0  0
   16.6122   -8.4755   17.2008 N   0  0  0  0  0  0  0  0  0  0  0  0
   15.3515   -8.0394   17.0341 N   0  0  0  0  0  0  0  0  0  0  0  0
   15.1820   -6.7011   17.2651 C   0  0  0  0  0  0  0  0  0  0  0  0
   14.0622   -5.8762   17.1391 C   0  0  0  0  0  0  0  0  0  0  0  0
  1  2  2  0
  2  3  1  0
  3  4  1  0
  4  5  2  0
  5  6  1  0
  6  7  2  0
  7  8  1  0
  8  9  2  0
  3 10  2  0
 10 11  1  0
 11 12  2  0
 12 13  1  0
 13 14  1  0
 14 15  2  0
 15  1  1  0
  9  4  1  0
 14 10  1  0
M  END
>  <ref_pdb>  (430) 
A1105b

>  <subsites>  (430) 
2 - A3977/A/202/1

>  <HIPPO Compound ID>  (430) 
5573

>  <energy_score>  (430) 
-17.755161

>  <fragmenstein_mode>  (430) 
expansion

>  <scratch_subdir>  (430) 
/opt/xchem-fragalysis-2/maxwin/BulkDock/SCRATCH/511258/C5573-P103

>  <smiles>  (430) 
c1cc(-c2ccncc2)c2cn[nH]c2c1

>  <alias>  (430) 
C5573-P103

>  <ref_mols>  (430) 
A0497a,A1105b

>  <inspiration_score>  (430) 
None

>  <tags>  (430) 
BulkDock Fragalysis export,fragmenstein_placed,openbind_a71ev2a_c1_scaffolds,openbind_a71ev2a_c1_knitwork_pure

>  <fragmenstein_outcome>  (430) 
acceptable

>  <fragmenstein_error>  (430) 


>  <distance_score>  (430) 
0.804774

>  <inchikey>  (430) 
IIGFTWKBMUCFTB-UHFFFAOYSA-N

>  <name>  (430) 
C5573-P103

>  <HIPPO Pose ID>  (430) 
324525

>  <Energy>  (430) 
45.542303

>  <exports>  (430) 
['/opt/xchem-fragalysis-2/maxwin/BulkDock/OUTPUTS/openbind_a71ev2a_c1_knitwork_pure_165VWF8.sdf', '/opt/xchem-fragalysis-2/maxwin/BulkDock/OUTPUTS/openbind_a71ev2a_c1_knitwork_pure_1B07PTU.sdf', '/opt/xchem-fragalysis-2/maxwin/BulkDock/OUTPUTS/openbind_a71ev2a_c1_knitwork_pure_1B07UWE.sdf', '/opt/xchem-fragalysis-2/maxwin/openbind-hippo/a71ev2a/openbind_a71ev2a_c1_scaffold_products.sdf', '/opt/xchem-fragalysis-2/maxwin/openbind-hippo/a71ev2a/cycle_01/bulkdock/openbind_a71ev2a_c1_scaffold_products.sdf', '/opt/xchem-fragalysis-2/maxwin/openbind-hippo/a71ev2a/cycle_01/bulkdock/openbind_a71ev2a_c1_scaffolds.sdf']

>  <fragmenstein_runtime>  (430) 
0.866769

$$$$
C76028-P170
     RDKit          3D

 20 22  0  0  0  0  0  0  0  0999 V2000
   11.1558   14.9662   25.0173 O   0  0  0  0  0  0  0  0  0  0  0  0
   11.1516   14.9919   23.7832 C   0  0  0  0  0  0  0  0  0  0  0  0
   12.4961   14.9994   23.0953 C   0  0  0  0  0  0  0  0  0  0  0  0
   12.5016   15.7978   21.8150 C   0  0  0  0  0  0  0  0  0  0  0  0
   11.5180   15.1380   20.8855 C   0  0  0  0  0  0  0  0  0  0  0  0
   10.1349   15.2275   21.4992 C   0  0  0  0  0  0  0  0  0  0  0  0
   10.0265   14.9408   22.9503 N   0  0  0  0  0  0  0  0  0  0  0  0
    8.6813   14.8183   23.4730 C   0  0  0  0  0  0  0  0  0  0  0  0
    8.3996   14.4209   24.7819 C   0  0  0  0  0  0  0  0  0  0  0  0
    7.0832   14.2367   25.2184 C   0  0  0  0  0  0  0  0  0  0  0  0
    6.0147   14.4411   24.3479 C   0  0  0  0  0  0  0  0  0  0  0  0
    6.2456   14.8691   23.0480 C   0  0  0  0  0  0  0  0  0  0  0  0
    5.2794   15.0216   22.0691 N   0  0  0  0  0  0  0  0  0  0  0  0
    3.8878   14.6567   22.2430 C   0  0  0  0  0  0  0  0  0  0  0  0
    3.2252   14.2985   20.9582 C   0  0  0  0  0  0  0  0  0  0  0  0
    3.2700   13.1008   20.2814 C   0  0  0  0  0  0  0  0  0  0  0  0
    2.5373   13.2280   19.1439 O   0  0  0  0  0  0  0  0  0  0  0  0
    2.0888   14.5125   19.1907 C   0  0  0  0  0  0  0  0  0  0  0  0
    2.4846   15.2097   20.2363 N   0  0  0  0  0  0  0  0  0  0  0  0
    7.5742   15.0600   22.6433 C   0  0  0  0  0  0  0  0  0  0  0  0
  1  2  2  0
  2  3  1  0
  3  4  1  0
  4  5  1  0
  5  6  1  0
  6  7  1  0
  7  8  1  0
  8  9  2  0
  9 10  1  0
 10 11  2  0
 11 12  1  0
 12 13  1  0
 13 14  1  0
 14 15  1  0
 15 16  2  0
 16 17  1  0
 17 18  1  0
 18 19  2  0
 12 20  2  0
  7  2  1  0
 20  8  1  0
 19 15  1  0
M  END
>  <ref_pdb>  (431) 
A3579a

>  <subsites>  (431) 
1 - Active Site

>  <HIPPO Compound ID>  (431) 
65430

>  <energy_score>  (431) 
-28.435323

>  <fragmenstein_mode>  (431) 
expansion

>  <scratch_subdir>  (431) 
/opt/xchem-fragalysis-2/maxwin/BulkDock/SCRATCH/512188/C76028-P170

>  <smiles>  (431) 
O=C1CCCCN1c1cccc(NCc2cocn2)c1

>  <alias>  (431) 
C76028-P170

>  <ref_mols>  (431) 
A3623a,A3579a

>  <inspiration_score>  (431) 
None

>  <tags>  (431) 
BulkDock Fragalysis export,fragmenstein_placed,openbind_a71ev2a_c1_scaffolds,openbind_a71ev2a_c1_knitwork_pure

>  <fragmenstein_outcome>  (431) 
acceptable

>  <fragmenstein_error>  (431) 


>  <distance_score>  (431) 
0.734353

>  <inchikey>  (431) 
DJBDVHCYEQULCD-UHFFFAOYSA-N

>  <name>  (431) 
C76028-P170

>  <HIPPO Pose ID>  (431) 
325640

>  <Energy>  (431) 
38.24024

>  <exports>  (431) 
['/opt/xchem-fragalysis-2/maxwin/BulkDock/OUTPUTS/openbind_a71ev2a_c1_knitwork_pure_165VWF8.sdf', '/opt/xchem-fragalysis-2/maxwin/BulkDock/OUTPUTS/openbind_a71ev2a_c1_knitwork_pure_1B07PTU.sdf', '/opt/xchem-fragalysis-2/maxwin/BulkDock/OUTPUTS/openbind_a71ev2a_c1_knitwork_pure_1B07UWE.sdf', '/opt/xchem-fragalysis-2/maxwin/openbind-hippo/a71ev2a/openbind_a71ev2a_c1_scaffold_products.sdf', '/opt/xchem-fragalysis-2/maxwin/openbind-hippo/a71ev2a/cycle_01/bulkdock/openbind_a71ev2a_c1_scaffold_products.sdf', '/opt/xchem-fragalysis-2/maxwin/openbind-hippo/a71ev2a/cycle_01/bulkdock/openbind_a71ev2a_c1_scaffolds.sdf']

>  <fragmenstein_runtime>  (431) 
55.21348

$$$$
C111020-P31
     RDKit          3D

 23 25  0  0  0  0  0  0  0  0999 V2000
    8.3332   12.1614   -3.0018 C   0  0  0  0  0  0  0  0  0  0  0  0
    9.3658   12.6074   -1.9516 C   0  0  0  0  0  0  0  0  0  0  0  0
   10.7190   11.9855   -2.3061 C   0  0  0  0  0  0  0  0  0  0  0  0
    8.8560   12.2936   -0.5151 C   0  0  1  0  0  0  0  0  0  0  0  0
    8.9461   10.7961   -0.1736 C   0  0  0  0  0  0  0  0  0  0  0  0
    8.1524   10.4931    1.0911 C   0  0  0  0  0  0  0  0  0  0  0  0
    8.1318   11.6344    2.0763 C   0  0  0  0  0  0  0  0  0  0  0  0
    7.3938   11.4518    3.2627 C   0  0  0  0  0  0  0  0  0  0  0  0
    7.2579   12.4858    4.1795 C   0  0  0  0  0  0  0  0  0  0  0  0
    7.8528   13.7105    3.9112 C   0  0  0  0  0  0  0  0  0  0  0  0
    8.6030   13.8938    2.7387 C   0  0  0  0  0  0  0  0  0  0  0  0
    8.7749   12.8656    1.7973 C   0  0  0  0  0  0  0  0  0  0  0  0
    9.5405   13.0049    0.6031 N   0  0  0  0  0  0  0  0  0  0  0  0
   10.3116   14.2488    0.3837 C   0  0  0  0  0  0  0  0  0  0  0  0
   11.5339   14.3871    1.3508 C   0  0  0  0  0  0  0  0  0  0  0  0
   11.6050   15.2381    2.1530 O   0  0  0  0  0  0  0  0  0  0  0  0
   12.5455   13.2566    0.9843 N   0  0  0  0  0  0  0  0  0  0  0  0
   13.8115   12.8866    1.5987 C   0  0  0  0  0  0  0  0  0  0  0  0
   15.0822   13.4111    0.8988 C   0  0  2  0  0  0  0  0  0  0  0  0
   15.8615   12.3281    0.1542 C   0  0  0  0  0  0  0  0  0  0  0  0
   16.8855   11.8734    1.1672 C   0  0  0  0  0  0  0  0  0  0  0  0
   17.2107   13.1655    1.8754 C   0  0  0  0  0  0  0  0  0  0  0  0
   15.9930   13.9258    1.9042 O   0  0  0  0  0  0  0  0  0  0  0  0
  1  2  1  0
  2  3  1  0
  4  2  1  6
  4  5  1  0
  5  6  1  0
  6  7  1  0
  7  8  2  0
  8  9  1  0
  9 10  2  0
 10 11  1  0
 11 12  2  0
 12 13  1  0
 13 14  1  0
 14 15  1  0
 15 16  2  0
 15 17  1  0
 17 18  1  0
 19 18  1  1
 19 20  1  0
 20 21  1  0
 21 22  1  0
 22 23  1  0
 13  4  1  0
 23 19  1  0
 12  7  1  0
M  END
>  <ref_pdb>  (432) 
A0586a

>  <subsites>  (432) 
3 - A0541/A/147/1,6 - A0486/A/147/1

>  <HIPPO Compound ID>  (432) 
47627

>  <energy_score>  (432) 
-13.413456

>  <fragmenstein_mode>  (432) 
expansion

>  <scratch_subdir>  (432) 
/opt/xchem-fragalysis-2/maxwin/BulkDock/SCRATCH/512188/C111020-P31

>  <smiles>  (432) 
CC(C)[C@H]1CCc2ccccc2N1CC(=O)NC[C@@H]1CCCO1

>  <alias>  (432) 
C111020-P31

>  <ref_mols>  (432) 
A0608a,A0586a

>  <inspiration_score>  (432) 
None

>  <tags>  (432) 
BulkDock Fragalysis export,fragmenstein_placed,openbind_a71ev2a_c1_scaffolds,openbind_a71ev2a_c1_knitwork_pure

>  <fragmenstein_outcome>  (432) 
acceptable

>  <fragmenstein_error>  (432) 


>  <distance_score>  (432) 
0.938125

>  <inchikey>  (432) 
CYCQGJXZRZHMOH-UHFFFAOYSA-N

>  <name>  (432) 
C111020-P31

>  <HIPPO Pose ID>  (432) 
326839

>  <Energy>  (432) 
99.308915

>  <exports>  (432) 
['/opt/xchem-fragalysis-2/maxwin/BulkDock/OUTPUTS/openbind_a71ev2a_c1_knitwork_pure_165VWF8.sdf', '/opt/xchem-fragalysis-2/maxwin/BulkDock/OUTPUTS/openbind_a71ev2a_c1_knitwork_pure_1B07PTU.sdf', '/opt/xchem-fragalysis-2/maxwin/BulkDock/OUTPUTS/openbind_a71ev2a_c1_knitwork_pure_1B07UWE.sdf', '/opt/xchem-fragalysis-2/maxwin/openbind-hippo/a71ev2a/openbind_a71ev2a_c1_scaffold_products.sdf', '/opt/xchem-fragalysis-2/maxwin/openbind-hippo/a71ev2a/cycle_01/bulkdock/openbind_a71ev2a_c1_scaffold_products.sdf', '/opt/xchem-fragalysis-2/maxwin/openbind-hippo/a71ev2a/cycle_01/bulkdock/openbind_a71ev2a_c1_scaffolds.sdf']

>  <fragmenstein_runtime>  (432) 
2.881395

$$$$
C111024-P31
     RDKit          3D

 21 23  0  0  0  0  0  0  0  0999 V2000
    6.1954   10.0252    2.9874 C   0  0  0  0  0  0  0  0  0  0  0  0
    6.9934   11.2964    2.8549 C   0  0  0  0  0  0  0  0  0  0  0  0
    6.9310   12.2281    3.9028 C   0  0  0  0  0  0  0  0  0  0  0  0
    7.5851   13.4512    3.8023 C   0  0  0  0  0  0  0  0  0  0  0  0
    8.3244   13.7475    2.6581 C   0  0  0  0  0  0  0  0  0  0  0  0
    8.4499   12.8190    1.6108 C   0  0  0  0  0  0  0  0  0  0  0  0
    7.7856   11.5758    1.7171 C   0  0  0  0  0  0  0  0  0  0  0  0
    7.8680   10.5663    0.5958 C   0  0  0  0  0  0  0  0  0  0  0  0
    8.8915   10.9157   -0.4701 C   0  0  0  0  0  0  0  0  0  0  0  0
    8.8702   12.4125   -0.7226 C   0  0  0  0  0  0  0  0  0  0  0  0
    9.2603   13.1596    0.4836 N   0  0  0  0  0  0  0  0  0  0  0  0
   10.6911   13.0908    0.8722 C   0  0  0  0  0  0  0  0  0  0  0  0
   11.7526   13.4552   -0.2016 C   0  0  0  0  0  0  0  0  0  0  0  0
   11.5207   13.9699   -1.2260 O   0  0  0  0  0  0  0  0  0  0  0  0
   13.1195   13.0245    0.4302 N   0  0  0  0  0  0  0  0  0  0  0  0
   14.4586   13.0573   -0.1174 C   0  0  0  0  0  0  0  0  0  0  0  0
   15.4694   12.3482    0.7920 C   0  0  1  0  0  0  0  0  0  0  0  0
   16.8306   12.1561    0.1455 C   0  0  0  0  0  0  0  0  0  0  0  0
   17.7332   12.0604    1.3491 C   0  0  0  0  0  0  0  0  0  0  0  0
   17.1204   13.0894    2.2734 C   0  0  0  0  0  0  0  0  0  0  0  0
   15.7048   13.1112    2.0006 O   0  0  0  0  0  0  0  0  0  0  0  0
  1  2  1  0
  2  3  2  0
  3  4  1  0
  4  5  2  0
  5  6  1  0
  6  7  2  0
  7  8  1  0
  8  9  1  0
  9 10  1  0
 10 11  1  0
 11 12  1  0
 12 13  1  0
 13 14  2  0
 13 15  1  0
 15 16  1  0
 17 16  1  6
 17 18  1  0
 18 19  1  0
 19 20  1  0
 20 21  1  0
  7  2  1  0
 21 17  1  0
 11  6  1  0
M  END
>  <ref_pdb>  (433) 
A0586a

>  <subsites>  (433) 
3 - A0541/A/147/1,6 - A0486/A/147/1

>  <HIPPO Compound ID>  (433) 
111024

>  <energy_score>  (433) 
-16.045623

>  <fragmenstein_mode>  (433) 
expansion

>  <scratch_subdir>  (433) 
/opt/xchem-fragalysis-2/maxwin/BulkDock/SCRATCH/512188/C111024-P31

>  <smiles>  (433) 
Cc1cccc2c1CCCN2CC(=O)NC[C@H]1CCCO1

>  <alias>  (433) 
C111024-P31

>  <ref_mols>  (433) 
A0608a,A0586a

>  <inspiration_score>  (433) 
None

>  <tags>  (433) 
BulkDock Fragalysis export,fragmenstein_placed,openbind_a71ev2a_c1_scaffolds,openbind_a71ev2a_c1_knitwork_pure

>  <fragmenstein_outcome>  (433) 
acceptable

>  <fragmenstein_error>  (433) 


>  <distance_score>  (433) 
0.956247

>  <inchikey>  (433) 
XAUYAWPMDBLCMB-UHFFFAOYSA-N

>  <name>  (433) 
C111024-P31

>  <HIPPO Pose ID>  (433) 
326847

>  <Energy>  (433) 
89.085045

>  <exports>  (433) 
['/opt/xchem-fragalysis-2/maxwin/BulkDock/OUTPUTS/openbind_a71ev2a_c1_knitwork_pure_165VWF8.sdf', '/opt/xchem-fragalysis-2/maxwin/BulkDock/OUTPUTS/openbind_a71ev2a_c1_knitwork_pure_1B07PTU.sdf', '/opt/xchem-fragalysis-2/maxwin/BulkDock/OUTPUTS/openbind_a71ev2a_c1_knitwork_pure_1B07UWE.sdf', '/opt/xchem-fragalysis-2/maxwin/openbind-hippo/a71ev2a/openbind_a71ev2a_c1_scaffold_products.sdf', '/opt/xchem-fragalysis-2/maxwin/openbind-hippo/a71ev2a/cycle_01/bulkdock/openbind_a71ev2a_c1_scaffold_products.sdf', '/opt/xchem-fragalysis-2/maxwin/openbind-hippo/a71ev2a/cycle_01/bulkdock/openbind_a71ev2a_c1_scaffolds.sdf']

>  <fragmenstein_runtime>  (433) 
2.649629

$$$$
C45903-P536
     RDKit          3D

 21 23  0  0  0  0  0  0  0  0999 V2000
   23.4854   20.3374   25.0071 O   0  0  0  0  0  0  0  0  0  0  0  0
   22.9200   19.2758   24.2323 C   0  0  1  0  0  0  0  0  0  0  0  0
   23.6397   19.2023   22.8824 C   0  0  0  0  0  0  0  0  0  0  0  0
   25.1530   18.9440   22.9836 C   0  0  0  0  0  0  0  0  0  0  0  0
   25.8326   19.2819   21.7299 N   0  0  0  0  0  0  0  0  0  0  0  0
   26.4713   20.5259   21.6448 C   0  0  0  0  0  0  0  0  0  0  0  0
   25.9127   21.6045   22.2641 C   0  0  0  0  0  0  0  0  0  0  0  0
   26.6912   22.7069   22.3028 C   0  0  0  0  0  0  0  0  0  0  0  0
   27.8773   22.8296   21.7070 N   0  0  0  0  0  0  0  0  0  0  0  0
   28.3457   21.7685   21.0443 C   0  0  0  0  0  0  0  0  0  0  0  0
   29.5810   21.9363   20.4075 N   0  0  0  0  0  0  0  0  0  0  0  0
   30.3012   20.7418   20.0197 C   0  0  0  0  0  0  0  0  0  0  0  0
   31.3847   21.0861   19.0016 C   0  0  0  0  0  0  0  0  0  0  0  0
   32.3184   22.1683   19.5194 C   0  0  0  0  0  0  0  0  0  0  0  0
   31.5306   23.3957   19.9493 C   0  0  0  0  0  0  0  0  0  0  0  0
   30.3952   23.0464   20.9169 C   0  0  0  0  0  0  0  0  0  0  0  0
   27.6515   20.6095   20.9781 N   0  0  0  0  0  0  0  0  0  0  0  0
   23.0045   17.9830   25.0359 C   0  0  0  0  0  0  0  0  0  0  0  0
   22.1484   17.9580   26.3366 C   0  0  0  0  0  0  0  0  0  0  0  0
   21.8668   16.4735   26.0479 C   0  0  0  0  0  0  0  0  0  0  0  0
   22.1383   16.7824   24.5643 C   0  0  0  0  0  0  0  0  0  0  0  0
  2  1  1  1
  2  3  1  0
  3  4  1  0
  4  5  1  0
  5  6  1  0
  6  7  2  0
  7  8  1  0
  8  9  2  0
  9 10  1  0
 10 11  1  0
 11 12  1  0
 12 13  1  0
 13 14  1  0
 14 15  1  0
 15 16  1  0
 10 17  2  0
  2 18  1  0
 18 19  1  0
 19 20  1  0
 20 21  1  0
 17  6  1  0
 21 18  1  0
 16 11  1  0
M  END
>  <ref_pdb>  (434) 
A4943b

>  <subsites>  (434) 
1 - Active Site,5 - A3181/A/202/1

>  <HIPPO Compound ID>  (434) 
55545

>  <energy_score>  (434) 
-76.368601

>  <fragmenstein_mode>  (434) 
expansion

>  <scratch_subdir>  (434) 
/opt/xchem-fragalysis-2/maxwin/BulkDock/SCRATCH/512188/C45903-P536

>  <smiles>  (434) 
O[C@@H](CCNc1ccnc(N2CCCCC2)n1)C1CCC1

>  <alias>  (434) 
C45903-P536

>  <ref_mols>  (434) 
A4943b,A1146a

>  <inspiration_score>  (434) 
None

>  <tags>  (434) 
BulkDock Fragalysis export,fragmenstein_placed,openbind_a71ev2a_c1_scaffolds,openbind_a71ev2a_c1_knitwork_pure

>  <fragmenstein_outcome>  (434) 
acceptable

>  <fragmenstein_error>  (434) 


>  <distance_score>  (434) 
0.841485

>  <inchikey>  (434) 
DNVWCQWVHHGFQV-UHFFFAOYSA-N

>  <name>  (434) 
C45903-P536

>  <HIPPO Pose ID>  (434) 
326901

>  <Energy>  (434) 
-93.880709

>  <exports>  (434) 
['/opt/xchem-fragalysis-2/maxwin/BulkDock/OUTPUTS/openbind_a71ev2a_c1_knitwork_pure_165VWF8.sdf', '/opt/xchem-fragalysis-2/maxwin/BulkDock/OUTPUTS/openbind_a71ev2a_c1_knitwork_pure_1B07PTU.sdf', '/opt/xchem-fragalysis-2/maxwin/BulkDock/OUTPUTS/openbind_a71ev2a_c1_knitwork_pure_1B07UWE.sdf', '/opt/xchem-fragalysis-2/maxwin/openbind-hippo/a71ev2a/openbind_a71ev2a_c1_scaffold_products.sdf', '/opt/xchem-fragalysis-2/maxwin/openbind-hippo/a71ev2a/cycle_01/bulkdock/openbind_a71ev2a_c1_scaffold_products.sdf', '/opt/xchem-fragalysis-2/maxwin/openbind-hippo/a71ev2a/cycle_01/bulkdock/openbind_a71ev2a_c1_scaffolds.sdf']

>  <fragmenstein_runtime>  (434) 
85.775277

$$$$
C55840-P103
     RDKit          3D

 24 27  0  0  0  0  0  0  0  0999 V2000
   17.8556   -6.1292   19.1290 C   0  0  0  0  0  0  0  0  0  0  0  0
   17.6425   -5.1358   18.1817 C   0  0  0  0  0  0  0  0  0  0  0  0
   18.5715   -4.1113   18.0480 C   0  0  0  0  0  0  0  0  0  0  0  0
   19.6797   -4.1101   18.8841 C   0  0  0  0  0  0  0  0  0  0  0  0
   20.7186   -3.0965   18.7526 C   0  0  0  0  0  0  0  0  0  0  0  0
   21.0819   -2.4882   17.6370 N   0  0  0  0  0  0  0  0  0  0  0  0
   21.9676   -1.4584   17.8807 N   0  0  0  0  0  0  0  0  0  0  0  0
   22.1701   -1.2845   19.1684 C   0  0  0  0  0  0  0  0  0  0  0  0
   22.7768   -0.1889   19.7013 N   0  0  0  0  0  0  0  0  0  0  0  0
   21.8257    0.8897   20.0113 C   0  0  0  0  0  0  0  0  0  0  0  0
   21.2340    0.8151   21.4234 C   0  0  0  0  0  0  0  0  0  0  0  0
   19.7051    1.0489   21.4696 C   0  0  0  0  0  0  0  0  0  0  0  0
   18.9229   -0.2014   21.3019 C   0  0  0  0  0  0  0  0  0  0  0  0
   18.1137   -0.5026   20.3035 N   0  0  0  0  0  0  0  0  0  0  0  0
   17.6766   -1.7950   20.4846 N   0  0  0  0  0  0  0  0  0  0  0  0
   18.2156   -2.2509   21.5956 C   0  0  0  0  0  0  0  0  0  0  0  0
   18.1548   -3.5024   22.2655 C   0  0  0  0  0  0  0  0  0  0  0  0
   18.7996   -3.6695   23.4367 C   0  0  0  0  0  0  0  0  0  0  0  0
   19.5463   -2.5847   24.0536 C   0  0  0  0  0  0  0  0  0  0  0  0
   19.6059   -1.3999   23.4237 C   0  0  0  0  0  0  0  0  0  0  0  0
   18.9623   -1.2505   22.1938 N   0  0  0  0  0  0  0  0  0  0  0  0
   21.5782   -2.5592   20.1400 S   0  0  0  0  0  0  0  0  0  0  0  0
   19.8773   -5.0460   19.8532 N   0  0  0  0  0  0  0  0  0  0  0  0
   18.9706   -6.0366   19.9409 C   0  0  0  0  0  0  0  0  0  0  0  0
  1  2  2  0
  2  3  1  0
  3  4  2  0
  4  5  1  0
  5  6  2  0
  6  7  1  0
  7  8  2  0
  8  9  1  0
  9 10  1  0
 10 11  1  0
 11 12  1  0
 12 13  1  0
 13 14  2  0
 14 15  1  0
 15 16  2  0
 16 17  1  0
 17 18  2  0
 18 19  1  0
 19 20  2  0
 20 21  1  0
  8 22  1  0
  4 23  1  0
 23 24  2  0
 24  1  1  0
 22  5  1  0
 21 13  1  0
 21 16  1  0
M  END
>  <ref_pdb>  (435) 
A1105b

>  <subsites>  (435) 
2 - A3977/A/202/1

>  <HIPPO Compound ID>  (435) 
49927

>  <energy_score>  (435) 
-110.899055

>  <fragmenstein_mode>  (435) 
expansion

>  <scratch_subdir>  (435) 
/opt/xchem-fragalysis-2/maxwin/BulkDock/SCRATCH/512188/C55840-P103

>  <smiles>  (435) 
c1ccc(-c2nnc(NCCCc3nnc4ccccn34)s2)nc1

>  <alias>  (435) 
C55840-P103

>  <ref_mols>  (435) 
A1293a,A1105b

>  <inspiration_score>  (435) 
None

>  <tags>  (435) 
BulkDock Fragalysis export,fragmenstein_placed,openbind_a71ev2a_c1_scaffolds,openbind_a71ev2a_c1_knitwork_pure

>  <fragmenstein_outcome>  (435) 
acceptable

>  <fragmenstein_error>  (435) 


>  <distance_score>  (435) 
0.889783

>  <inchikey>  (435) 
LQIMRROOJIHJNB-UHFFFAOYSA-N

>  <name>  (435) 
C55840-P103

>  <HIPPO Pose ID>  (435) 
327263

>  <Energy>  (435) 
52.472712

>  <exports>  (435) 
['/opt/xchem-fragalysis-2/maxwin/BulkDock/OUTPUTS/openbind_a71ev2a_c1_knitwork_pure_165VWF8.sdf', '/opt/xchem-fragalysis-2/maxwin/BulkDock/OUTPUTS/openbind_a71ev2a_c1_knitwork_pure_1B07PTU.sdf', '/opt/xchem-fragalysis-2/maxwin/BulkDock/OUTPUTS/openbind_a71ev2a_c1_knitwork_pure_1B07UWE.sdf', '/opt/xchem-fragalysis-2/maxwin/openbind-hippo/a71ev2a/openbind_a71ev2a_c1_scaffold_products.sdf', '/opt/xchem-fragalysis-2/maxwin/openbind-hippo/a71ev2a/cycle_01/bulkdock/openbind_a71ev2a_c1_scaffold_products.sdf', '/opt/xchem-fragalysis-2/maxwin/openbind-hippo/a71ev2a/cycle_01/bulkdock/openbind_a71ev2a_c1_scaffolds.sdf']

>  <fragmenstein_runtime>  (435) 
1.674202

$$$$
C55852-P103
     RDKit          3D

 22 24  0  0  0  0  0  0  0  0999 V2000
   21.0060   -1.7950   17.6836 O   0  0  0  0  0  0  0  0  0  0  0  0
   20.8257   -2.2426   18.7422 C   0  0  0  0  0  0  0  0  0  0  0  0
   21.1859   -1.6918   20.1315 N   0  0  0  0  0  0  0  0  0  0  0  0
   21.7577   -0.4325   20.5157 C   0  0  0  0  0  0  0  0  0  0  0  0
   20.8121    0.7464   20.2344 C   0  0  0  0  0  0  0  0  0  0  0  0
   19.5658    0.9167   21.1273 C   0  0  0  0  0  0  0  0  0  0  0  0
   18.7367   -0.3066   21.2095 C   0  0  0  0  0  0  0  0  0  0  0  0
   17.8424   -0.7159   20.3296 N   0  0  0  0  0  0  0  0  0  0  0  0
   17.4834   -2.0029   20.6579 N   0  0  0  0  0  0  0  0  0  0  0  0
   18.1259   -2.3334   21.7575 C   0  0  0  0  0  0  0  0  0  0  0  0
   18.1512   -3.5129   22.5510 C   0  0  0  0  0  0  0  0  0  0  0  0
   18.9128   -3.5582   23.6613 C   0  0  0  0  0  0  0  0  0  0  0  0
   19.7026   -2.4135   24.0860 C   0  0  0  0  0  0  0  0  0  0  0  0
   19.6677   -1.2911   23.3484 C   0  0  0  0  0  0  0  0  0  0  0  0
   18.8887   -1.2617   22.1898 N   0  0  0  0  0  0  0  0  0  0  0  0
   20.0404   -3.5136   18.9123 C   0  0  0  0  0  0  0  0  0  0  0  0
   19.0165   -3.8082   18.0157 C   0  0  0  0  0  0  0  0  0  0  0  0
   18.2116   -4.9174   18.2669 C   0  0  0  0  0  0  0  0  0  0  0  0
   18.4769   -5.6910   19.3846 C   0  0  0  0  0  0  0  0  0  0  0  0
   17.7391   -6.7742   19.6571 F   0  0  0  0  0  0  0  0  0  0  0  0
   19.5214   -5.3317   20.2219 C   0  0  0  0  0  0  0  0  0  0  0  0
   20.2995   -4.2395   20.0409 N   0  0  0  0  0  0  0  0  0  0  0  0
  1  2  2  0
  2  3  1  0
  3  4  1  0
  4  5  1  0
  5  6  1  0
  6  7  1  0
  7  8  2  0
  8  9  1  0
  9 10  2  0
 10 11  1  0
 11 12  2  0
 12 13  1  0
 13 14  2  0
 14 15  1  0
  2 16  1  0
 16 17  2  0
 17 18  1  0
 18 19  2  0
 19 20  1  0
 19 21  1  0
 21 22  2  0
 15  7  1  0
 22 16  1  0
 15 10  1  0
M  END
>  <ref_pdb>  (436) 
A1105b

>  <subsites>  (436) 
2 - A3977/A/202/1

>  <HIPPO Compound ID>  (436) 
55679

>  <energy_score>  (436) 
-2.032979

>  <fragmenstein_mode>  (436) 
expansion

>  <scratch_subdir>  (436) 
/opt/xchem-fragalysis-2/maxwin/BulkDock/SCRATCH/512188/C55852-P103

>  <smiles>  (436) 
O=C(NCCCc1nnc2ccccn12)c1ccc(F)cn1

>  <alias>  (436) 
C55852-P103

>  <ref_mols>  (436) 
A1293a,A1105b

>  <inspiration_score>  (436) 
None

>  <tags>  (436) 
BulkDock Fragalysis export,fragmenstein_placed,openbind_a71ev2a_c1_scaffolds,openbind_a71ev2a_c1_knitwork_pure

>  <fragmenstein_outcome>  (436) 
acceptable

>  <fragmenstein_error>  (436) 


>  <distance_score>  (436) 
0.806883

>  <inchikey>  (436) 
ATVGHXZGBSIHPD-UHFFFAOYSA-N

>  <name>  (436) 
C55852-P103

>  <HIPPO Pose ID>  (436) 
327272

>  <Energy>  (436) 
85.863417

>  <exports>  (436) 
['/opt/xchem-fragalysis-2/maxwin/BulkDock/OUTPUTS/openbind_a71ev2a_c1_knitwork_pure_165VWF8.sdf', '/opt/xchem-fragalysis-2/maxwin/BulkDock/OUTPUTS/openbind_a71ev2a_c1_knitwork_pure_1B07PTU.sdf', '/opt/xchem-fragalysis-2/maxwin/BulkDock/OUTPUTS/openbind_a71ev2a_c1_knitwork_pure_1B07UWE.sdf', '/opt/xchem-fragalysis-2/maxwin/openbind-hippo/a71ev2a/openbind_a71ev2a_c1_scaffold_products.sdf', '/opt/xchem-fragalysis-2/maxwin/openbind-hippo/a71ev2a/cycle_01/bulkdock/openbind_a71ev2a_c1_scaffold_products.sdf', '/opt/xchem-fragalysis-2/maxwin/openbind-hippo/a71ev2a/cycle_01/bulkdock/openbind_a71ev2a_c1_scaffolds.sdf']

>  <fragmenstein_runtime>  (436) 
1.122299

$$$$
C55854-P103
     RDKit          3D

 22 24  0  0  0  0  0  0  0  0999 V2000
   18.1159   -7.0692   20.0011 C   0  0  0  0  0  0  0  0  0  0  0  0
   18.7011   -5.7671   19.5567 C   0  0  0  0  0  0  0  0  0  0  0  0
   18.2446   -5.1124   18.4128 C   0  0  0  0  0  0  0  0  0  0  0  0
   18.9017   -3.9679   17.9723 C   0  0  0  0  0  0  0  0  0  0  0  0
   19.9890   -3.5097   18.7000 C   0  0  0  0  0  0  0  0  0  0  0  0
   20.7146   -2.2759   18.2419 C   0  0  0  0  0  0  0  0  0  0  0  0
   20.9080   -2.0793   17.1091 O   0  0  0  0  0  0  0  0  0  0  0  0
   21.0012   -1.3948   19.4705 N   0  0  0  0  0  0  0  0  0  0  0  0
   21.4973   -0.0512   19.5588 C   0  0  0  0  0  0  0  0  0  0  0  0
   21.0685    0.6849   20.8314 C   0  0  0  0  0  0  0  0  0  0  0  0
   19.5559    0.9735   20.9763 C   0  0  0  0  0  0  0  0  0  0  0  0
   18.7343   -0.2574   21.1000 C   0  0  0  0  0  0  0  0  0  0  0  0
   17.8432   -0.6901   20.2275 N   0  0  0  0  0  0  0  0  0  0  0  0
   17.4975   -1.9750   20.5744 N   0  0  0  0  0  0  0  0  0  0  0  0
   18.1465   -2.2841   21.6760 C   0  0  0  0  0  0  0  0  0  0  0  0
   18.1889   -3.4552   22.4813 C   0  0  0  0  0  0  0  0  0  0  0  0
   18.9263   -3.4670   23.6089 C   0  0  0  0  0  0  0  0  0  0  0  0
   19.6664   -2.2920   24.0422 C   0  0  0  0  0  0  0  0  0  0  0  0
   19.6215   -1.1811   23.2872 C   0  0  0  0  0  0  0  0  0  0  0  0
   18.8826   -1.1914   22.1029 N   0  0  0  0  0  0  0  0  0  0  0  0
   20.4220   -4.0737   19.8620 N   0  0  0  0  0  0  0  0  0  0  0  0
   19.7837   -5.2065   20.2330 C   0  0  0  0  0  0  0  0  0  0  0  0
  1  2  1  0
  2  3  2  0
  3  4  1  0
  4  5  2  0
  5  6  1  0
  6  7  2  0
  6  8  1  0
  8  9  1  0
  9 10  1  0
 10 11  1  0
 11 12  1  0
 12 13  2  0
 13 14  1  0
 14 15  2  0
 15 16  1  0
 16 17  2  0
 17 18  1  0
 18 19  2  0
 19 20  1  0
  5 21  1  0
 21 22  2  0
 22  2  1  0
 20 12  1  0
 20 15  1  0
M  END
>  <ref_pdb>  (437) 
A1105b

>  <subsites>  (437) 
2 - A3977/A/202/1

>  <HIPPO Compound ID>  (437) 
76428

>  <energy_score>  (437) 
-3.096154

>  <fragmenstein_mode>  (437) 
expansion

>  <scratch_subdir>  (437) 
/opt/xchem-fragalysis-2/maxwin/BulkDock/SCRATCH/512188/C55854-P103

>  <smiles>  (437) 
Cc1ccc(C(=O)NCCCc2nnc3ccccn23)nc1

>  <alias>  (437) 
C55854-P103

>  <ref_mols>  (437) 
A1293a,A1105b

>  <inspiration_score>  (437) 
None

>  <tags>  (437) 
BulkDock Fragalysis export,fragmenstein_placed,openbind_a71ev2a_c1_scaffolds,openbind_a71ev2a_c1_knitwork_pure

>  <fragmenstein_outcome>  (437) 
acceptable

>  <fragmenstein_error>  (437) 


>  <distance_score>  (437) 
0.829214

>  <inchikey>  (437) 
SITKYFMZVGCCEF-UHFFFAOYSA-N

>  <name>  (437) 
C55854-P103

>  <HIPPO Pose ID>  (437) 
327274

>  <Energy>  (437) 
80.90357

>  <exports>  (437) 
['/opt/xchem-fragalysis-2/maxwin/BulkDock/OUTPUTS/openbind_a71ev2a_c1_knitwork_pure_165VWF8.sdf', '/opt/xchem-fragalysis-2/maxwin/BulkDock/OUTPUTS/openbind_a71ev2a_c1_knitwork_pure_1B07PTU.sdf', '/opt/xchem-fragalysis-2/maxwin/BulkDock/OUTPUTS/openbind_a71ev2a_c1_knitwork_pure_1B07UWE.sdf', '/opt/xchem-fragalysis-2/maxwin/openbind-hippo/a71ev2a/openbind_a71ev2a_c1_scaffold_products.sdf', '/opt/xchem-fragalysis-2/maxwin/openbind-hippo/a71ev2a/cycle_01/bulkdock/openbind_a71ev2a_c1_scaffold_products.sdf', '/opt/xchem-fragalysis-2/maxwin/openbind-hippo/a71ev2a/cycle_01/bulkdock/openbind_a71ev2a_c1_scaffolds.sdf']

>  <fragmenstein_runtime>  (437) 
1.436695

$$$$
C55855-P103
     RDKit          3D

 22 24  0  0  0  0  0  0  0  0999 V2000
   20.0441   -2.4098   17.0453 O   0  0  0  0  0  0  0  0  0  0  0  0
   20.1472   -2.6056   18.1903 C   0  0  0  0  0  0  0  0  0  0  0  0
   20.8195   -1.7592   19.2942 N   0  0  0  0  0  0  0  0  0  0  0  0
   21.4207   -0.4521   19.2346 C   0  0  0  0  0  0  0  0  0  0  0  0
   21.1100    0.4386   20.4474 C   0  0  0  0  0  0  0  0  0  0  0  0
   19.6311    0.8358   20.6699 C   0  0  0  0  0  0  0  0  0  0  0  0
   18.7591   -0.3284   20.9619 C   0  0  0  0  0  0  0  0  0  0  0  0
   17.7914   -0.7858   20.1912 N   0  0  0  0  0  0  0  0  0  0  0  0
   17.4418   -2.0339   20.6477 N   0  0  0  0  0  0  0  0  0  0  0  0
   18.1561   -2.2863   21.7220 C   0  0  0  0  0  0  0  0  0  0  0  0
   18.2270   -3.4028   22.5989 C   0  0  0  0  0  0  0  0  0  0  0  0
   19.0200   -3.3505   23.6867 C   0  0  0  0  0  0  0  0  0  0  0  0
   19.7970   -2.1611   23.9999 C   0  0  0  0  0  0  0  0  0  0  0  0
   19.7359   -1.1068   23.1684 C   0  0  0  0  0  0  0  0  0  0  0  0
   18.9371   -1.1851   22.0265 N   0  0  0  0  0  0  0  0  0  0  0  0
   19.5262   -3.8257   18.7923 C   0  0  0  0  0  0  0  0  0  0  0  0
   20.1800   -4.3165   19.8942 N   0  0  0  0  0  0  0  0  0  0  0  0
   19.6682   -5.4420   20.4325 C   0  0  0  0  0  0  0  0  0  0  0  0
   18.5297   -6.0789   19.9650 C   0  0  0  0  0  0  0  0  0  0  0  0
   17.8645   -5.5298   18.8750 C   0  0  0  0  0  0  0  0  0  0  0  0
   18.3601   -4.3826   18.2732 C   0  0  0  0  0  0  0  0  0  0  0  0
   17.6056   -3.8883   17.2563 O   0  0  0  0  0  0  0  0  0  0  0  0
  1  2  2  0
  2  3  1  0
  3  4  1  0
  4  5  1  0
  5  6  1  0
  6  7  1  0
  7  8  2  0
  8  9  1  0
  9 10  2  0
 10 11  1  0
 11 12  2  0
 12 13  1  0
 13 14  2  0
 14 15  1  0
  2 16  1  0
 16 17  2  0
 17 18  1  0
 18 19  2  0
 19 20  1  0
 20 21  2  0
 21 22  1  0
 15  7  1  0
 21 16  1  0
 15 10  1  0
M  END
>  <ref_pdb>  (438) 
A1105b

>  <subsites>  (438) 
2 - A3977/A/202/1

>  <HIPPO Compound ID>  (438) 
45694

>  <energy_score>  (438) 
-35.758566

>  <fragmenstein_mode>  (438) 
expansion

>  <scratch_subdir>  (438) 
/opt/xchem-fragalysis-2/maxwin/BulkDock/SCRATCH/512188/C55855-P103

>  <smiles>  (438) 
O=C(NCCCc1nnc2ccccn12)c1ncccc1O

>  <alias>  (438) 
C55855-P103

>  <ref_mols>  (438) 
A1293a,A1105b

>  <inspiration_score>  (438) 
None

>  <tags>  (438) 
BulkDock Fragalysis export,fragmenstein_placed,openbind_a71ev2a_c1_scaffolds,openbind_a71ev2a_c1_knitwork_pure

>  <fragmenstein_outcome>  (438) 
acceptable

>  <fragmenstein_error>  (438) 


>  <distance_score>  (438) 
0.856803

>  <inchikey>  (438) 
NGVCFPVLGXTFRC-UHFFFAOYSA-N

>  <name>  (438) 
C55855-P103

>  <HIPPO Pose ID>  (438) 
327275

>  <Energy>  (438) 
96.940394

>  <exports>  (438) 
['/opt/xchem-fragalysis-2/maxwin/BulkDock/OUTPUTS/openbind_a71ev2a_c1_knitwork_pure_165VWF8.sdf', '/opt/xchem-fragalysis-2/maxwin/BulkDock/OUTPUTS/openbind_a71ev2a_c1_knitwork_pure_1B07PTU.sdf', '/opt/xchem-fragalysis-2/maxwin/BulkDock/OUTPUTS/openbind_a71ev2a_c1_knitwork_pure_1B07UWE.sdf', '/opt/xchem-fragalysis-2/maxwin/openbind-hippo/a71ev2a/openbind_a71ev2a_c1_scaffold_products.sdf', '/opt/xchem-fragalysis-2/maxwin/openbind-hippo/a71ev2a/cycle_01/bulkdock/openbind_a71ev2a_c1_scaffold_products.sdf', '/opt/xchem-fragalysis-2/maxwin/openbind-hippo/a71ev2a/cycle_01/bulkdock/openbind_a71ev2a_c1_scaffolds.sdf']

>  <fragmenstein_runtime>  (438) 
1.834008

$$$$
C55859-P103
     RDKit          3D

 23 25  0  0  0  0  0  0  0  0999 V2000
   21.6263    0.8445   19.5421 O   0  0  0  0  0  0  0  0  0  0  0  0
   21.6156   -0.0400   20.2544 C   0  0  0  0  0  0  0  0  0  0  0  0
   21.6605   -0.0786   21.7983 N   0  0  0  0  0  0  0  0  0  0  0  0
   21.6323    0.9893   22.7548 C   0  0  0  0  0  0  0  0  0  0  0  0
   20.2182    1.4694   23.1215 C   0  0  0  0  0  0  0  0  0  0  0  0
   19.1035    1.2866   22.0859 C   0  0  0  0  0  0  0  0  0  0  0  0
   18.6211   -0.0874   21.7397 C   0  0  0  0  0  0  0  0  0  0  0  0
   17.8725   -0.3260   20.6715 N   0  0  0  0  0  0  0  0  0  0  0  0
   17.5814   -1.6607   20.6218 N   0  0  0  0  0  0  0  0  0  0  0  0
   18.1428   -2.2282   21.6639 C   0  0  0  0  0  0  0  0  0  0  0  0
   18.1107   -3.5619   22.1509 C   0  0  0  0  0  0  0  0  0  0  0  0
   18.7606   -3.8886   23.2816 C   0  0  0  0  0  0  0  0  0  0  0  0
   19.4801   -2.8900   24.0424 C   0  0  0  0  0  0  0  0  0  0  0  0
   19.4749   -1.6187   23.6117 C   0  0  0  0  0  0  0  0  0  0  0  0
   18.8140   -1.2774   22.4241 N   0  0  0  0  0  0  0  0  0  0  0  0
   21.4489   -1.5510   19.9687 N   0  0  0  0  0  0  0  0  0  0  0  0
   21.1672   -2.2417   18.7365 C   0  0  0  0  0  0  0  0  0  0  0  0
   20.1658   -3.3604   18.9337 C   0  0  0  0  0  0  0  0  0  0  0  0
   19.0062   -3.4227   18.1624 C   0  0  0  0  0  0  0  0  0  0  0  0
   18.1496   -4.5120   18.3072 C   0  0  0  0  0  0  0  0  0  0  0  0
   18.4787   -5.5215   19.1996 C   0  0  0  0  0  0  0  0  0  0  0  0
   19.6436   -5.3824   19.9360 C   0  0  0  0  0  0  0  0  0  0  0  0
   20.4816   -4.3244   19.8452 N   0  0  0  0  0  0  0  0  0  0  0  0
  1  2  2  0
  2  3  1  0
  3  4  1  0
  4  5  1  0
  5  6  1  0
  6  7  1  0
  7  8  2  0
  8  9  1  0
  9 10  2  0
 10 11  1  0
 11 12  2  0
 12 13  1  0
 13 14  2  0
 14 15  1  0
  2 16  1  0
 16 17  1  0
 17 18  1  0
 18 19  2  0
 19 20  1  0
 20 21  2  0
 21 22  1  0
 22 23  2  0
 15  7  1  0
 23 18  1  0
 15 10  1  0
M  END
>  <ref_pdb>  (439) 
A1105b

>  <subsites>  (439) 
2 - A3977/A/202/1

>  <HIPPO Compound ID>  (439) 
53636

>  <energy_score>  (439) 
-6.476876

>  <fragmenstein_mode>  (439) 
expansion

>  <scratch_subdir>  (439) 
/opt/xchem-fragalysis-2/maxwin/BulkDock/SCRATCH/512188/C55859-P103

>  <smiles>  (439) 
O=C(NCCCc1nnc2ccccn12)NCc1ccccn1

>  <alias>  (439) 
C55859-P103

>  <ref_mols>  (439) 
A1293a,A1105b

>  <inspiration_score>  (439) 
None

>  <tags>  (439) 
BulkDock Fragalysis export,fragmenstein_placed,openbind_a71ev2a_c1_scaffolds,openbind_a71ev2a_c1_knitwork_pure

>  <fragmenstein_outcome>  (439) 
acceptable

>  <fragmenstein_error>  (439) 


>  <distance_score>  (439) 
0.844522

>  <inchikey>  (439) 
VXAIHVZBABPCQF-UHFFFAOYSA-N

>  <name>  (439) 
C55859-P103

>  <HIPPO Pose ID>  (439) 
327278

>  <Energy>  (439) 
-1.343592

>  <exports>  (439) 
['/opt/xchem-fragalysis-2/maxwin/BulkDock/OUTPUTS/openbind_a71ev2a_c1_knitwork_pure_165VWF8.sdf', '/opt/xchem-fragalysis-2/maxwin/BulkDock/OUTPUTS/openbind_a71ev2a_c1_knitwork_pure_1B07PTU.sdf', '/opt/xchem-fragalysis-2/maxwin/BulkDock/OUTPUTS/openbind_a71ev2a_c1_knitwork_pure_1B07UWE.sdf', '/opt/xchem-fragalysis-2/maxwin/openbind-hippo/a71ev2a/openbind_a71ev2a_c1_scaffold_products.sdf', '/opt/xchem-fragalysis-2/maxwin/openbind-hippo/a71ev2a/cycle_01/bulkdock/openbind_a71ev2a_c1_scaffold_products.sdf', '/opt/xchem-fragalysis-2/maxwin/openbind-hippo/a71ev2a/cycle_01/bulkdock/openbind_a71ev2a_c1_scaffolds.sdf']

>  <fragmenstein_runtime>  (439) 
2.118324

$$$$
C55877-P103
     RDKit          3D

 22 24  0  0  0  0  0  0  0  0999 V2000
   19.0157   -7.0052   21.1857 C   0  0  0  0  0  0  0  0  0  0  0  0
   19.0730   -5.8997   20.1756 C   0  0  0  0  0  0  0  0  0  0  0  0
   18.2834   -5.9613   19.0341 C   0  0  0  0  0  0  0  0  0  0  0  0
   18.3916   -4.9436   18.0955 C   0  0  0  0  0  0  0  0  0  0  0  0
   19.2772   -3.8961   18.3217 C   0  0  0  0  0  0  0  0  0  0  0  0
   19.9979   -3.8936   19.5048 C   0  0  0  0  0  0  0  0  0  0  0  0
   20.7003   -2.7814   19.9105 N   0  0  0  0  0  0  0  0  0  0  0  0
   21.2008   -1.5595   19.1039 C   0  0  0  0  0  0  0  0  0  0  0  0
   21.1630   -1.3429   17.9580 O   0  0  0  0  0  0  0  0  0  0  0  0
   21.7112   -0.5247   20.1143 C   0  0  0  0  0  0  0  0  0  0  0  0
   20.8645    0.7627   20.0684 C   0  0  0  0  0  0  0  0  0  0  0  0
   19.6688    0.9155   21.0324 C   0  0  0  0  0  0  0  0  0  0  0  0
   18.8194   -0.2881   21.1335 C   0  0  0  0  0  0  0  0  0  0  0  0
   17.8902   -0.6690   20.2797 N   0  0  0  0  0  0  0  0  0  0  0  0
   17.4698   -1.9257   20.6451 N   0  0  0  0  0  0  0  0  0  0  0  0
   18.1250   -2.2720   21.7325 C   0  0  0  0  0  0  0  0  0  0  0  0
   18.1347   -3.4479   22.5311 C   0  0  0  0  0  0  0  0  0  0  0  0
   18.9155   -3.5090   23.6273 C   0  0  0  0  0  0  0  0  0  0  0  0
   19.7428   -2.3840   24.0318 C   0  0  0  0  0  0  0  0  0  0  0  0
   19.7406   -1.2726   23.2767 C   0  0  0  0  0  0  0  0  0  0  0  0
   18.9455   -1.2307   22.1291 N   0  0  0  0  0  0  0  0  0  0  0  0
   19.9144   -4.8721   20.4302 N   0  0  0  0  0  0  0  0  0  0  0  0
  1  2  1  0
  2  3  2  0
  3  4  1  0
  4  5  2  0
  5  6  1  0
  6  7  1  0
  7  8  1  0
  8  9  2  0
  8 10  1  0
 10 11  1  0
 11 12  1  0
 12 13  1  0
 13 14  2  0
 14 15  1  0
 15 16  2  0
 16 17  1  0
 17 18  2  0
 18 19  1  0
 19 20  2  0
 20 21  1  0
  6 22  2  0
 22  2  1  0
 21 13  1  0
 21 16  1  0
M  END
>  <ref_pdb>  (440) 
A1105b

>  <subsites>  (440) 
2 - A3977/A/202/1

>  <HIPPO Compound ID>  (440) 
45663

>  <energy_score>  (440) 
-3.098581

>  <fragmenstein_mode>  (440) 
expansion

>  <scratch_subdir>  (440) 
/opt/xchem-fragalysis-2/maxwin/BulkDock/SCRATCH/512188/C55877-P103

>  <smiles>  (440) 
Cc1cccc(NC(=O)CCCc2nnc3ccccn23)n1

>  <alias>  (440) 
C55877-P103

>  <ref_mols>  (440) 
A1293a,A1105b

>  <inspiration_score>  (440) 
None

>  <tags>  (440) 
BulkDock Fragalysis export,fragmenstein_placed,openbind_a71ev2a_c1_scaffolds,openbind_a71ev2a_c1_knitwork_pure

>  <fragmenstein_outcome>  (440) 
acceptable

>  <fragmenstein_error>  (440) 


>  <distance_score>  (440) 
0.987658

>  <inchikey>  (440) 
IOEZZLDHRHKNLW-UHFFFAOYSA-N

>  <name>  (440) 
C55877-P103

>  <HIPPO Pose ID>  (440) 
327307

>  <Energy>  (440) 
14.727523

>  <exports>  (440) 
['/opt/xchem-fragalysis-2/maxwin/BulkDock/OUTPUTS/openbind_a71ev2a_c1_knitwork_pure_165VWF8.sdf', '/opt/xchem-fragalysis-2/maxwin/BulkDock/OUTPUTS/openbind_a71ev2a_c1_knitwork_pure_1B07PTU.sdf', '/opt/xchem-fragalysis-2/maxwin/BulkDock/OUTPUTS/openbind_a71ev2a_c1_knitwork_pure_1B07UWE.sdf', '/opt/xchem-fragalysis-2/maxwin/openbind-hippo/a71ev2a/openbind_a71ev2a_c1_scaffold_products.sdf', '/opt/xchem-fragalysis-2/maxwin/openbind-hippo/a71ev2a/cycle_01/bulkdock/openbind_a71ev2a_c1_scaffold_products.sdf', '/opt/xchem-fragalysis-2/maxwin/openbind-hippo/a71ev2a/cycle_01/bulkdock/openbind_a71ev2a_c1_scaffolds.sdf']

>  <fragmenstein_runtime>  (440) 
2.178735

$$$$
C2394-P339
     RDKit          3D

 13 13  0  0  0  0  0  0  0  0999 V2000
   11.2672   14.9832   23.6376 C   0  0  0  0  0  0  0  0  0  0  0  0
   10.0124   14.5434   22.8941 C   0  0  0  0  0  0  0  0  0  0  0  0
    9.0135   13.7069   23.7335 C   0  0  0  0  0  0  0  0  0  0  0  0
    7.6898   13.6972   22.9574 C   0  0  0  0  0  0  0  0  0  0  0  0
    9.5376   12.2909   24.0046 C   0  0  0  0  0  0  0  0  0  0  0  0
    8.8846   14.3980   24.9699 O   0  0  0  0  0  0  0  0  0  0  0  0
    7.8167   14.0870   25.8504 C   0  0  0  0  0  0  0  0  0  0  0  0
    7.5714   15.3442   26.6954 C   0  0  1  0  0  0  0  0  0  0  0  0
    8.8163   15.7032   27.5227 C   0  0  0  0  0  0  0  0  0  0  0  0
    8.6308   17.0384   28.2324 C   0  0  0  0  0  0  0  0  0  0  0  0
    8.2109   18.1317   27.2552 C   0  0  0  0  0  0  0  0  0  0  0  0
    6.9906   17.7666   26.5420 N   0  0  0  0  0  0  0  0  0  0  0  0
    7.1755   16.5258   25.7847 C   0  0  0  0  0  0  0  0  0  0  0  0
  1  2  1  0
  2  3  1  0
  3  4  1  0
  3  5  1  0
  3  6  1  0
  6  7  1  0
  8  7  1  6
  8  9  1  0
  9 10  1  0
 10 11  1  0
 11 12  1  0
 12 13  1  0
 13  8  1  0
M  END
>  <ref_pdb>  (441) 
A4237b

>  <subsites>  (441) 
1 - Active Site

>  <HIPPO Compound ID>  (441) 
1851

>  <energy_score>  (441) 
-31.027332

>  <fragmenstein_mode>  (441) 
expansion

>  <scratch_subdir>  (441) 
/opt/xchem-fragalysis-2/maxwin/BulkDock/SCRATCH/512192/C2394-P339

>  <smiles>  (441) 
CCC(C)(C)OC[C@H]1CCCNC1

>  <alias>  (441) 
C2394-P339

>  <ref_mols>  (441) 
A1775a,A4237b

>  <inspiration_score>  (441) 
None

>  <tags>  (441) 
BulkDock Fragalysis export,fragmenstein_placed,openbind_a71ev2a_c1_knitwork_impure,openbind_a71ev2a_c1_scaffolds

>  <fragmenstein_outcome>  (441) 
acceptable

>  <fragmenstein_error>  (441) 


>  <distance_score>  (441) 
0.90478

>  <inchikey>  (441) 
WHQNOBWFVDSYOK-UHFFFAOYSA-N

>  <name>  (441) 
C2394-P339

>  <HIPPO Pose ID>  (441) 
327857

>  <Energy>  (441) 
21.55598

>  <exports>  (441) 
['/opt/xchem-fragalysis-2/maxwin/BulkDock/OUTPUTS/openbind_a71ev2a_c1_knitwork_impure_165VXJF.sdf', '/opt/xchem-fragalysis-2/maxwin/BulkDock/OUTPUTS/openbind_a71ev2a_c1_knitwork_impure_1B07QS4.sdf', '/opt/xchem-fragalysis-2/maxwin/BulkDock/OUTPUTS/openbind_a71ev2a_c1_knitwork_impure_1B07X5R.sdf', '/opt/xchem-fragalysis-2/maxwin/openbind-hippo/a71ev2a/openbind_a71ev2a_c1_scaffold_products.sdf', '/opt/xchem-fragalysis-2/maxwin/openbind-hippo/a71ev2a/cycle_01/bulkdock/openbind_a71ev2a_c1_scaffold_products.sdf', '/opt/xchem-fragalysis-2/maxwin/openbind-hippo/a71ev2a/cycle_01/bulkdock/openbind_a71ev2a_c1_scaffolds.sdf']

>  <fragmenstein_runtime>  (441) 
19.166309

$$$$
C2397-P339
     RDKit          3D

 15 15  0  0  0  0  0  0  0  0999 V2000
   10.6169   15.6362   19.4209 C   0  0  0  0  0  0  0  0  0  0  0  0
   10.5536   15.7895   20.9434 C   0  0  0  0  0  0  0  0  0  0  0  0
   11.9395   15.5765   21.5447 C   0  0  0  0  0  0  0  0  0  0  0  0
    9.4914   14.8369   21.5104 C   0  0  0  0  0  0  0  0  0  0  0  0
    9.5111   14.6567   23.0225 C   0  0  0  0  0  0  0  0  0  0  0  0
    8.4499   13.7627   23.3735 O   0  0  0  0  0  0  0  0  0  0  0  0
    8.4855   13.3662   24.7474 C   0  0  0  0  0  0  0  0  0  0  0  0
    7.1869   13.7874   25.4626 C   0  0  1  0  0  0  0  0  0  0  0  0
    6.7267   12.6860   26.4317 C   0  0  0  0  0  0  0  0  0  0  0  0
    7.2568   15.1646   26.1894 C   0  0  1  0  0  0  0  0  0  0  0  0
    8.3184   15.2529   27.3050 C   0  0  0  0  0  0  0  0  0  0  0  0
    8.3107   16.6287   27.9755 C   0  0  0  0  0  0  0  0  0  0  0  0
    8.3971   17.7469   26.9431 C   0  0  0  0  0  0  0  0  0  0  0  0
    7.3534   17.5681   25.8449 C   0  0  0  0  0  0  0  0  0  0  0  0
    7.4856   16.2495   25.2322 N   0  0  0  0  0  0  0  0  0  0  0  0
  1  2  1  0
  2  3  1  0
  2  4  1  0
  4  5  1  0
  5  6  1  0
  6  7  1  0
  7  8  1  0
  8  9  1  1
  8 10  1  0
 10 11  1  1
 11 12  1  0
 12 13  1  0
 13 14  1  0
 14 15  1  0
 15 10  1  0
M  END
>  <ref_pdb>  (442) 
A4237b

>  <subsites>  (442) 
1 - Active Site

>  <HIPPO Compound ID>  (442) 
8070

>  <energy_score>  (442) 
-34.01571

>  <fragmenstein_mode>  (442) 
expansion

>  <scratch_subdir>  (442) 
/opt/xchem-fragalysis-2/maxwin/BulkDock/SCRATCH/512192/C2397-P339

>  <smiles>  (442) 
CC(C)CCOC[C@@H](C)[C@H]1CCCCN1

>  <alias>  (442) 
C2397-P339

>  <ref_mols>  (442) 
A1775a,A4237b

>  <inspiration_score>  (442) 
None

>  <tags>  (442) 
BulkDock Fragalysis export,fragmenstein_placed,openbind_a71ev2a_c1_knitwork_impure,openbind_a71ev2a_c1_scaffolds

>  <fragmenstein_outcome>  (442) 
acceptable

>  <fragmenstein_error>  (442) 


>  <distance_score>  (442) 
0.795322

>  <inchikey>  (442) 
QHQMGDZLEKICDZ-UHFFFAOYSA-N

>  <name>  (442) 
C2397-P339

>  <HIPPO Pose ID>  (442) 
327859

>  <Energy>  (442) 
19.440159

>  <exports>  (442) 
['/opt/xchem-fragalysis-2/maxwin/BulkDock/OUTPUTS/openbind_a71ev2a_c1_knitwork_impure_165VXJF.sdf', '/opt/xchem-fragalysis-2/maxwin/BulkDock/OUTPUTS/openbind_a71ev2a_c1_knitwork_impure_1B07QS4.sdf', '/opt/xchem-fragalysis-2/maxwin/BulkDock/OUTPUTS/openbind_a71ev2a_c1_knitwork_impure_1B07X5R.sdf', '/opt/xchem-fragalysis-2/maxwin/openbind-hippo/a71ev2a/openbind_a71ev2a_c1_scaffold_products.sdf', '/opt/xchem-fragalysis-2/maxwin/openbind-hippo/a71ev2a/cycle_01/bulkdock/openbind_a71ev2a_c1_scaffold_products.sdf', '/opt/xchem-fragalysis-2/maxwin/openbind-hippo/a71ev2a/cycle_01/bulkdock/openbind_a71ev2a_c1_scaffolds.sdf']

>  <fragmenstein_runtime>  (442) 
2.309834

$$$$
C2399-P339
     RDKit          3D

 15 15  0  0  0  0  0  0  0  0999 V2000
    8.9998   11.9507   24.2905 C   0  0  0  0  0  0  0  0  0  0  0  0
    8.2162   13.0407   24.4493 C   0  0  0  0  0  0  0  0  0  0  0  0
    7.8444   13.8878   23.2757 C   0  0  0  0  0  0  0  0  0  0  0  0
    8.8205   14.7766   22.9757 F   0  0  0  0  0  0  0  0  0  0  0  0
    7.6330   13.1352   22.1690 F   0  0  0  0  0  0  0  0  0  0  0  0
    6.6914   14.5741   23.4537 F   0  0  0  0  0  0  0  0  0  0  0  0
    7.6732   13.4366   25.8153 C   0  0  1  0  0  0  0  0  0  0  0  0
    6.1615   13.2401   25.9524 C   0  0  0  0  0  0  0  0  0  0  0  0
    8.1787   12.5028   26.6998 F   0  0  0  0  0  0  0  0  0  0  0  0
    8.1998   14.8471   26.2933 C   0  0  2  0  0  0  0  0  0  0  0  0
    8.0994   15.0192   27.8209 C   0  0  0  0  0  0  0  0  0  0  0  0
    8.6672   16.3696   28.2610 C   0  0  0  0  0  0  0  0  0  0  0  0
    7.9829   17.5208   27.5341 C   0  0  0  0  0  0  0  0  0  0  0  0
    8.1071   17.3596   26.0941 N   0  0  0  0  0  0  0  0  0  0  0  0
    7.5429   16.0850   25.6305 C   0  0  0  0  0  0  0  0  0  0  0  0
  1  2  2  0
  2  3  1  0
  3  4  1  0
  3  5  1  0
  3  6  1  0
  2  7  1  0
  7  8  1  6
  7  9  1  0
  7 10  1  0
 10 11  1  1
 11 12  1  0
 12 13  1  0
 13 14  1  0
 14 15  1  0
 15 10  1  0
M  END
>  <ref_pdb>  (443) 
A4237b

>  <subsites>  (443) 
1 - Active Site

>  <HIPPO Compound ID>  (443) 
19827

>  <energy_score>  (443) 
-30.279081

>  <fragmenstein_mode>  (443) 
expansion

>  <scratch_subdir>  (443) 
/opt/xchem-fragalysis-2/maxwin/BulkDock/SCRATCH/512192/C2399-P339

>  <smiles>  (443) 
C=C(C(F)(F)F)[C@@](C)(F)[C@@H]1CCCNC1

>  <alias>  (443) 
C2399-P339

>  <ref_mols>  (443) 
A1775a,A4237b

>  <inspiration_score>  (443) 
None

>  <tags>  (443) 
BulkDock Fragalysis export,fragmenstein_placed,openbind_a71ev2a_c1_knitwork_impure,openbind_a71ev2a_c1_scaffolds

>  <fragmenstein_outcome>  (443) 
acceptable

>  <fragmenstein_error>  (443) 


>  <distance_score>  (443) 
0.918381

>  <inchikey>  (443) 
ORSASUAYDTUOGY-UHFFFAOYSA-N

>  <name>  (443) 
C2399-P339

>  <HIPPO Pose ID>  (443) 
327861

>  <Energy>  (443) 
15.664856

>  <exports>  (443) 
['/opt/xchem-fragalysis-2/maxwin/BulkDock/OUTPUTS/openbind_a71ev2a_c1_knitwork_impure_165VXJF.sdf', '/opt/xchem-fragalysis-2/maxwin/BulkDock/OUTPUTS/openbind_a71ev2a_c1_knitwork_impure_1B07QS4.sdf', '/opt/xchem-fragalysis-2/maxwin/BulkDock/OUTPUTS/openbind_a71ev2a_c1_knitwork_impure_1B07X5R.sdf', '/opt/xchem-fragalysis-2/maxwin/openbind-hippo/a71ev2a/openbind_a71ev2a_c1_scaffold_products.sdf', '/opt/xchem-fragalysis-2/maxwin/openbind-hippo/a71ev2a/cycle_01/bulkdock/openbind_a71ev2a_c1_scaffold_products.sdf', '/opt/xchem-fragalysis-2/maxwin/openbind-hippo/a71ev2a/cycle_01/bulkdock/openbind_a71ev2a_c1_scaffolds.sdf']

>  <fragmenstein_runtime>  (443) 
2.981011

$$$$
C2410-P339
     RDKit          3D

 14 14  0  0  0  0  0  0  0  0999 V2000
   10.1978   15.8103   23.5286 C   0  0  0  0  0  0  0  0  0  0  0  0
    9.6533   14.5636   22.8667 C   0  0  0  0  0  0  0  0  0  0  0  0
    9.2803   14.8806   21.5977 F   0  0  0  0  0  0  0  0  0  0  0  0
   10.6609   13.6574   22.7583 F   0  0  0  0  0  0  0  0  0  0  0  0
    8.4707   13.9041   23.5708 C   0  0  0  0  0  0  0  0  0  0  0  0
    8.8067   13.3531   24.9638 C   0  0  0  0  0  0  0  0  0  0  0  0
    7.7485   13.5781   26.0536 C   0  0  2  0  0  0  0  0  0  0  0  0
    6.5440   13.1075   25.6249 F   0  0  0  0  0  0  0  0  0  0  0  0
    7.5785   15.0207   26.6046 C   0  0  1  0  0  0  0  0  0  0  0  0
    8.8254   15.4601   27.3915 C   0  0  0  0  0  0  0  0  0  0  0  0
    8.6587   16.8618   27.9697 C   0  0  0  0  0  0  0  0  0  0  0  0
    8.2611   17.8452   26.8778 C   0  0  0  0  0  0  0  0  0  0  0  0
    7.0444   17.3526   26.1023 C   0  0  0  0  0  0  0  0  0  0  0  0
    7.2630   16.0096   25.5629 N   0  0  0  0  0  0  0  0  0  0  0  0
  1  2  1  0
  2  3  1  0
  2  4  1  0
  2  5  1  0
  5  6  1  0
  6  7  1  0
  7  8  1  6
  7  9  1  0
  9 10  1  6
 10 11  1  0
 11 12  1  0
 12 13  1  0
 13 14  1  0
 14  9  1  0
M  END
>  <ref_pdb>  (444) 
A4237b

>  <subsites>  (444) 
1 - Active Site

>  <HIPPO Compound ID>  (444) 
11207

>  <energy_score>  (444) 
-32.445708

>  <fragmenstein_mode>  (444) 
expansion

>  <scratch_subdir>  (444) 
/opt/xchem-fragalysis-2/maxwin/BulkDock/SCRATCH/512192/C2410-P339

>  <smiles>  (444) 
CC(F)(F)CC[C@H](F)[C@H]1CCCCN1

>  <alias>  (444) 
C2410-P339

>  <ref_mols>  (444) 
A1775a,A4237b

>  <inspiration_score>  (444) 
None

>  <tags>  (444) 
BulkDock Fragalysis export,fragmenstein_placed,openbind_a71ev2a_c1_knitwork_impure,openbind_a71ev2a_c1_scaffolds

>  <fragmenstein_outcome>  (444) 
acceptable

>  <fragmenstein_error>  (444) 


>  <distance_score>  (444) 
0.890965

>  <inchikey>  (444) 
IZIDSOYGYYEPPV-UHFFFAOYSA-N

>  <name>  (444) 
C2410-P339

>  <HIPPO Pose ID>  (444) 
327865

>  <Energy>  (444) 
28.902824

>  <exports>  (444) 
['/opt/xchem-fragalysis-2/maxwin/BulkDock/OUTPUTS/openbind_a71ev2a_c1_knitwork_impure_165VXJF.sdf', '/opt/xchem-fragalysis-2/maxwin/BulkDock/OUTPUTS/openbind_a71ev2a_c1_knitwork_impure_1B07QS4.sdf', '/opt/xchem-fragalysis-2/maxwin/BulkDock/OUTPUTS/openbind_a71ev2a_c1_knitwork_impure_1B07X5R.sdf', '/opt/xchem-fragalysis-2/maxwin/openbind-hippo/a71ev2a/openbind_a71ev2a_c1_scaffold_products.sdf', '/opt/xchem-fragalysis-2/maxwin/openbind-hippo/a71ev2a/cycle_01/bulkdock/openbind_a71ev2a_c1_scaffold_products.sdf', '/opt/xchem-fragalysis-2/maxwin/openbind-hippo/a71ev2a/cycle_01/bulkdock/openbind_a71ev2a_c1_scaffolds.sdf']

>  <fragmenstein_runtime>  (444) 
1.705958

$$$$
C2413-P339
     RDKit          3D

 15 15  0  0  0  0  0  0  0  0999 V2000
    8.8598   11.8184   24.2526 C   0  0  0  0  0  0  0  0  0  0  0  0
    8.1591   12.9575   24.4444 C   0  0  0  0  0  0  0  0  0  0  0  0
    7.9119   13.9221   23.3279 C   0  0  0  0  0  0  0  0  0  0  0  0
    8.9431   14.7893   23.1811 F   0  0  0  0  0  0  0  0  0  0  0  0
    7.7528   13.2806   22.1450 F   0  0  0  0  0  0  0  0  0  0  0  0
    6.7855   14.6561   23.4888 F   0  0  0  0  0  0  0  0  0  0  0  0
    7.6229   13.3370   25.8172 C   0  0  1  0  0  0  0  0  0  0  0  0
    6.1323   13.0406   25.9892 C   0  0  0  0  0  0  0  0  0  0  0  0
    8.2248   12.4840   26.7120 F   0  0  0  0  0  0  0  0  0  0  0  0
    8.0267   14.8273   26.2006 C   0  0  2  0  0  0  0  0  0  0  0  0
    8.2483   15.0313   27.7082 C   0  0  0  0  0  0  0  0  0  0  0  0
    8.7917   16.4355   27.9961 C   0  0  0  0  0  0  0  0  0  0  0  0
    7.8980   17.5105   27.3878 C   0  0  0  0  0  0  0  0  0  0  0  0
    7.5883   17.2177   25.9255 C   0  0  0  0  0  0  0  0  0  0  0  0
    7.0612   15.8623   25.7633 N   0  0  0  0  0  0  0  0  0  0  0  0
  1  2  2  0
  2  3  1  0
  3  4  1  0
  3  5  1  0
  3  6  1  0
  2  7  1  0
  7  8  1  6
  7  9  1  0
  7 10  1  0
 10 11  1  1
 11 12  1  0
 12 13  1  0
 13 14  1  0
 14 15  1  0
 15 10  1  0
M  END
>  <ref_pdb>  (445) 
A4237b

>  <subsites>  (445) 
1 - Active Site

>  <HIPPO Compound ID>  (445) 
6106

>  <energy_score>  (445) 
-31.518832

>  <fragmenstein_mode>  (445) 
expansion

>  <scratch_subdir>  (445) 
/opt/xchem-fragalysis-2/maxwin/BulkDock/SCRATCH/512192/C2413-P339

>  <smiles>  (445) 
C=C(C(F)(F)F)[C@@](C)(F)[C@@H]1CCCCN1

>  <alias>  (445) 
C2413-P339

>  <ref_mols>  (445) 
A1775a,A4237b

>  <inspiration_score>  (445) 
None

>  <tags>  (445) 
BulkDock Fragalysis export,fragmenstein_placed,openbind_a71ev2a_c1_knitwork_impure,openbind_a71ev2a_c1_scaffolds

>  <fragmenstein_outcome>  (445) 
acceptable

>  <fragmenstein_error>  (445) 


>  <distance_score>  (445) 
0.867235

>  <inchikey>  (445) 
DOUSOOUXCFRQSM-UHFFFAOYSA-N

>  <name>  (445) 
C2413-P339

>  <HIPPO Pose ID>  (445) 
327869

>  <Energy>  (445) 
37.077121

>  <exports>  (445) 
['/opt/xchem-fragalysis-2/maxwin/BulkDock/OUTPUTS/openbind_a71ev2a_c1_knitwork_impure_165VXJF.sdf', '/opt/xchem-fragalysis-2/maxwin/BulkDock/OUTPUTS/openbind_a71ev2a_c1_knitwork_impure_1B07QS4.sdf', '/opt/xchem-fragalysis-2/maxwin/BulkDock/OUTPUTS/openbind_a71ev2a_c1_knitwork_impure_1B07X5R.sdf', '/opt/xchem-fragalysis-2/maxwin/openbind-hippo/a71ev2a/openbind_a71ev2a_c1_scaffold_products.sdf', '/opt/xchem-fragalysis-2/maxwin/openbind-hippo/a71ev2a/cycle_01/bulkdock/openbind_a71ev2a_c1_scaffold_products.sdf', '/opt/xchem-fragalysis-2/maxwin/openbind-hippo/a71ev2a/cycle_01/bulkdock/openbind_a71ev2a_c1_scaffolds.sdf']

>  <fragmenstein_runtime>  (445) 
2.947431

$$$$
C2416-P339
     RDKit          3D

 13 13  0  0  0  0  0  0  0  0999 V2000
    9.1696   14.9242   22.6910 C   0  0  0  0  0  0  0  0  0  0  0  0
    8.3325   13.8077   23.3075 C   0  0  0  0  0  0  0  0  0  0  0  0
    8.8375   13.1848   24.6383 C   0  0  0  0  0  0  0  0  0  0  0  0
    8.5450   11.6686   24.6082 C   0  0  0  0  0  0  0  0  0  0  0  0
   10.3522   13.3366   24.8553 C   0  0  0  0  0  0  0  0  0  0  0  0
    8.0497   13.7971   25.8278 C   0  0  0  0  0  0  0  0  0  0  0  0
    7.3010   13.1136   26.5395 O   0  0  0  0  0  0  0  0  0  0  0  0
    8.2347   15.3025   26.0891 C   0  0  2  0  0  0  0  0  0  0  0  0
    8.6626   15.5601   27.5334 C   0  0  0  0  0  0  0  0  0  0  0  0
    8.8489   17.0579   27.7613 C   0  0  0  0  0  0  0  0  0  0  0  0
    7.6000   17.8275   27.3378 C   0  0  0  0  0  0  0  0  0  0  0  0
    7.1417   17.4543   25.9279 C   0  0  0  0  0  0  0  0  0  0  0  0
    6.9874   16.0081   25.7587 N   0  0  0  0  0  0  0  0  0  0  0  0
  1  2  1  0
  2  3  1  0
  3  4  1  0
  3  5  1  0
  3  6  1  0
  6  7  2  0
  8  6  1  1
  8  9  1  0
  9 10  1  0
 10 11  1  0
 11 12  1  0
 12 13  1  0
 13  8  1  0
M  END
>  <ref_pdb>  (446) 
A4237b

>  <subsites>  (446) 
1 - Active Site

>  <HIPPO Compound ID>  (446) 
31645

>  <energy_score>  (446) 
-40.923106

>  <fragmenstein_mode>  (446) 
expansion

>  <scratch_subdir>  (446) 
/opt/xchem-fragalysis-2/maxwin/BulkDock/SCRATCH/512192/C2416-P339

>  <smiles>  (446) 
CCC(C)(C)C(=O)[C@@H]1CCCCN1

>  <alias>  (446) 
C2416-P339

>  <ref_mols>  (446) 
A1775a,A4237b

>  <inspiration_score>  (446) 
None

>  <tags>  (446) 
BulkDock Fragalysis export,fragmenstein_placed,openbind_a71ev2a_c1_knitwork_impure,openbind_a71ev2a_c1_scaffolds

>  <fragmenstein_outcome>  (446) 
acceptable

>  <fragmenstein_error>  (446) 


>  <distance_score>  (446) 
0.871654

>  <inchikey>  (446) 
NWHFPHZJXUAAAQ-UHFFFAOYSA-N

>  <name>  (446) 
C2416-P339

>  <HIPPO Pose ID>  (446) 
327873

>  <Energy>  (446) 
48.180429

>  <exports>  (446) 
['/opt/xchem-fragalysis-2/maxwin/BulkDock/OUTPUTS/openbind_a71ev2a_c1_knitwork_impure_165VXJF.sdf', '/opt/xchem-fragalysis-2/maxwin/BulkDock/OUTPUTS/openbind_a71ev2a_c1_knitwork_impure_1B07QS4.sdf', '/opt/xchem-fragalysis-2/maxwin/BulkDock/OUTPUTS/openbind_a71ev2a_c1_knitwork_impure_1B07X5R.sdf', '/opt/xchem-fragalysis-2/maxwin/openbind-hippo/a71ev2a/openbind_a71ev2a_c1_scaffold_products.sdf', '/opt/xchem-fragalysis-2/maxwin/openbind-hippo/a71ev2a/cycle_01/bulkdock/openbind_a71ev2a_c1_scaffold_products.sdf', '/opt/xchem-fragalysis-2/maxwin/openbind-hippo/a71ev2a/cycle_01/bulkdock/openbind_a71ev2a_c1_scaffolds.sdf']

>  <fragmenstein_runtime>  (446) 
1.522622

$$$$
C5400-P106
     RDKit          3D

 10 11  0  0  0  0  0  0  0  0999 V2000
   10.5114   15.2847   21.4255 C   0  0  0  0  0  0  0  0  0  0  0  0
   11.7852   15.1019   21.7810 C   0  0  0  0  0  0  0  0  0  0  0  0
   11.8584   14.1092   22.8889 C   0  0  0  0  0  0  0  0  0  0  0  0
   10.4868   14.0600   23.4046 N   0  0  0  0  0  0  0  0  0  0  0  0
   10.1090   12.8966   24.1971 C   0  0  2  0  0  0  0  0  0  0  0  0
   10.5528   11.5289   23.6900 C   0  0  0  0  0  0  0  0  0  0  0  0
    9.5899   10.5586   24.3312 C   0  0  0  0  0  0  0  0  0  0  0  0
    8.3253   11.2664   24.3142 N   0  0  0  0  0  0  0  0  0  0  0  0
    8.6123   12.6923   24.5209 C   0  0  0  0  0  0  0  0  0  0  0  0
    9.6125   14.4726   22.2981 C   0  0  0  0  0  0  0  0  0  0  0  0
  1  2  2  0
  2  3  1  0
  3  4  1  0
  5  4  1  6
  5  6  1  0
  6  7  1  0
  7  8  1  0
  8  9  1  0
  4 10  1  0
 10  1  1  0
  9  5  1  0
M  END
>  <ref_pdb>  (447) 
A1140a

>  <subsites>  (447) 
1 - Active Site

>  <HIPPO Compound ID>  (447) 
3778

>  <energy_score>  (447) 
-21.129274

>  <fragmenstein_mode>  (447) 
expansion

>  <scratch_subdir>  (447) 
/opt/xchem-fragalysis-2/maxwin/BulkDock/SCRATCH/512192/C5400-P106

>  <smiles>  (447) 
C1=CCN([C@@H]2CCNC2)C1

>  <alias>  (447) 
C5400-P106

>  <ref_mols>  (447) 
A4855a,A1140a,A4333a,A4708a,A4343a,A4586a

>  <inspiration_score>  (447) 
None

>  <tags>  (447) 
BulkDock Fragalysis export,fragmenstein_placed,openbind_a71ev2a_c1_knitwork_impure,openbind_a71ev2a_c1_scaffolds

>  <fragmenstein_outcome>  (447) 
acceptable

>  <fragmenstein_error>  (447) 


>  <distance_score>  (447) 
0.974572

>  <inchikey>  (447) 
AGEDTVGYDAKPRV-UHFFFAOYSA-N

>  <name>  (447) 
C5400-P106

>  <HIPPO Pose ID>  (447) 
328297

>  <Energy>  (447) 
24.099681

>  <exports>  (447) 
['/opt/xchem-fragalysis-2/maxwin/BulkDock/OUTPUTS/openbind_a71ev2a_c1_knitwork_impure_165VXJF.sdf', '/opt/xchem-fragalysis-2/maxwin/BulkDock/OUTPUTS/openbind_a71ev2a_c1_knitwork_impure_1B07QS4.sdf', '/opt/xchem-fragalysis-2/maxwin/BulkDock/OUTPUTS/openbind_a71ev2a_c1_knitwork_impure_1B07X5R.sdf', '/opt/xchem-fragalysis-2/maxwin/openbind-hippo/a71ev2a/openbind_a71ev2a_c1_scaffold_products.sdf', '/opt/xchem-fragalysis-2/maxwin/openbind-hippo/a71ev2a/cycle_01/bulkdock/openbind_a71ev2a_c1_scaffold_products.sdf', '/opt/xchem-fragalysis-2/maxwin/openbind-hippo/a71ev2a/cycle_01/bulkdock/openbind_a71ev2a_c1_scaffolds.sdf']

>  <fragmenstein_runtime>  (447) 
118.592015

$$$$
C8137-P187
     RDKit          3D

 18 18  0  0  0  0  0  0  0  0999 V2000
   10.8667   15.7154   19.0729 C   0  0  0  0  0  0  0  0  0  0  0  0
   11.2874   15.0061   20.3427 C   0  0  0  0  0  0  0  0  0  0  0  0
   11.6779   15.9578   21.4709 C   0  0  0  0  0  0  0  0  0  0  0  0
   11.5182   15.2718   22.8288 C   0  0  0  0  0  0  0  0  0  0  0  0
   10.4121   15.8652   23.6054 N   0  0  0  0  0  0  0  0  0  0  0  0
   10.7477   16.3056   24.9526 C   0  0  0  0  0  0  0  0  0  0  0  0
    8.8108   15.6899   23.1501 S   0  0  0  0  0  0  0  0  0  0  0  0
    8.7098   15.6134   21.7163 O   0  0  0  0  0  0  0  0  0  0  0  0
    7.9934   16.5851   23.9284 O   0  0  0  0  0  0  0  0  0  0  0  0
    8.5090   14.1260   23.6585 N   0  0  0  0  0  0  0  0  0  0  0  0
    8.6078   13.7055   25.0617 C   0  0  1  0  0  0  0  0  0  0  0  0
    7.9019   14.6560   26.0384 C   0  0  0  0  0  0  0  0  0  0  0  0
    8.1021   12.2509   25.2389 C   0  0  0  0  0  0  0  0  0  0  0  0
    6.6376   12.1161   25.6542 C   0  0  0  0  0  0  0  0  0  0  0  0
    6.3011   10.6757   26.0081 C   0  0  0  0  0  0  0  0  0  0  0  0
    6.7166    9.6860   25.0314 N   0  0  0  0  0  0  0  0  0  0  0  0
    8.0480    9.8645   24.4641 C   0  0  0  0  0  0  0  0  0  0  0  0
    8.4037   11.2999   24.0866 C   0  0  0  0  0  0  0  0  0  0  0  0
  1  2  1  0
  2  3  1  0
  3  4  1  0
  4  5  1  0
  5  6  1  0
  5  7  1  0
  7  8  2  0
  7  9  2  0
  7 10  1  0
 10 11  1  0
 11 12  1  1
 11 13  1  0
 13 14  1  0
 14 15  1  0
 15 16  1  0
 16 17  1  0
 17 18  1  0
 18 13  1  0
M  END
>  <ref_pdb>  (448) 
A3485a

>  <subsites>  (448) 
1 - Active Site

>  <HIPPO Compound ID>  (448) 
5948

>  <energy_score>  (448) 
-38.91479

>  <fragmenstein_mode>  (448) 
expansion

>  <scratch_subdir>  (448) 
/opt/xchem-fragalysis-2/maxwin/BulkDock/SCRATCH/512192/C8137-P187

>  <smiles>  (448) 
CCCCN(C)S(=O)(=O)N[C@@H](C)C1CCNCC1

>  <alias>  (448) 
C8137-P187

>  <ref_mols>  (448) 
A3485a,A0719a

>  <inspiration_score>  (448) 
None

>  <tags>  (448) 
BulkDock Fragalysis export,fragmenstein_placed,openbind_a71ev2a_c1_knitwork_impure,openbind_a71ev2a_c1_scaffolds

>  <fragmenstein_outcome>  (448) 
acceptable

>  <fragmenstein_error>  (448) 


>  <distance_score>  (448) 
0.80325

>  <inchikey>  (448) 
YJBQQPKNCOBFQV-UHFFFAOYSA-N

>  <name>  (448) 
C8137-P187

>  <HIPPO Pose ID>  (448) 
328964

>  <Energy>  (448) 
-160.334823

>  <exports>  (448) 
['/opt/xchem-fragalysis-2/maxwin/BulkDock/OUTPUTS/openbind_a71ev2a_c1_knitwork_impure_165VXJF.sdf', '/opt/xchem-fragalysis-2/maxwin/BulkDock/OUTPUTS/openbind_a71ev2a_c1_knitwork_impure_1B07QS4.sdf', '/opt/xchem-fragalysis-2/maxwin/BulkDock/OUTPUTS/openbind_a71ev2a_c1_knitwork_impure_1B07X5R.sdf', '/opt/xchem-fragalysis-2/maxwin/openbind-hippo/a71ev2a/openbind_a71ev2a_c1_scaffold_products.sdf', '/opt/xchem-fragalysis-2/maxwin/openbind-hippo/a71ev2a/cycle_01/bulkdock/openbind_a71ev2a_c1_scaffold_products.sdf', '/opt/xchem-fragalysis-2/maxwin/openbind-hippo/a71ev2a/cycle_01/bulkdock/openbind_a71ev2a_c1_scaffolds.sdf']

>  <fragmenstein_runtime>  (448) 
15.784969

$$$$
C13035-P120
     RDKit          3D

 18 19  0  0  0  0  0  0  0  0999 V2000
    2.9949   12.5523   29.7518 C   0  0  0  0  0  0  0  0  0  0  0  0
    2.8029   11.2616   28.9452 C   0  0  1  0  0  0  0  0  0  0  0  0
    4.0729   10.4074   28.8657 C   0  0  0  0  0  0  0  0  0  0  0  0
    5.2039   11.1885   28.2023 C   0  0  0  0  0  0  0  0  0  0  0  0
    5.6762   12.1198   28.7276 O   0  0  0  0  0  0  0  0  0  0  0  0
    5.5451   10.5193   26.8457 N   0  0  0  0  0  0  0  0  0  0  0  0
    6.4209   10.8922   25.8709 C   0  0  0  0  0  0  0  0  0  0  0  0
    7.0435    9.9902   24.9667 C   0  0  0  0  0  0  0  0  0  0  0  0
    8.0258   10.7327   24.3839 C   0  0  0  0  0  0  0  0  0  0  0  0
    7.7927   12.0054   24.7634 N   0  0  0  0  0  0  0  0  0  0  0  0
    6.9202   12.1326   25.7550 N   0  0  0  0  0  0  0  0  0  0  0  0
    8.7583   12.9682   24.2825 C   0  0  0  0  0  0  0  0  0  0  0  0
    9.8174   12.0676   23.6173 C   0  0  0  0  0  0  0  0  0  0  0  0
    9.2455   10.6086   23.5850 C   0  0  0  0  0  0  0  0  0  0  0  0
    1.6548   10.4799   29.5539 C   0  0  0  0  0  0  0  0  0  0  0  0
    1.8508   10.2282   30.8647 F   0  0  0  0  0  0  0  0  0  0  0  0
    1.4681    9.2971   28.9296 F   0  0  0  0  0  0  0  0  0  0  0  0
    0.5037   11.1774   29.4315 F   0  0  0  0  0  0  0  0  0  0  0  0
  2  1  1  1
  2  3  1  0
  3  4  1  0
  4  5  2  0
  4  6  1  0
  6  7  1  0
  7  8  1  0
  8  9  2  0
  9 10  1  0
 10 11  1  0
 10 12  1  0
 12 13  1  0
 13 14  1  0
  2 15  1  0
 15 16  1  0
 15 17  1  0
 15 18  1  0
 11  7  2  0
 14  9  1  0
M  END
>  <ref_pdb>  (449) 
A1445a

>  <subsites>  (449) 
1 - Active Site

>  <HIPPO Compound ID>  (449) 
29671

>  <energy_score>  (449) 
-7.036237

>  <fragmenstein_mode>  (449) 
expansion

>  <scratch_subdir>  (449) 
/opt/xchem-fragalysis-2/maxwin/BulkDock/SCRATCH/512192/C13035-P120

>  <smiles>  (449) 
C[C@@H](CC(=O)Nc1cc2n(n1)CCC2)C(F)(F)F

>  <alias>  (449) 
C13035-P120

>  <ref_mols>  (449) 
A1445a,A3564a

>  <inspiration_score>  (449) 
None

>  <tags>  (449) 
BulkDock Fragalysis export,fragmenstein_placed,openbind_a71ev2a_c1_knitwork_impure,openbind_a71ev2a_c1_scaffolds

>  <fragmenstein_outcome>  (449) 
acceptable

>  <fragmenstein_error>  (449) 


>  <distance_score>  (449) 
0.906516

>  <inchikey>  (449) 
NTHBIXDORUIWBD-UHFFFAOYSA-N

>  <name>  (449) 
C13035-P120

>  <HIPPO Pose ID>  (449) 
329854

>  <Energy>  (449) 
-4.62144

>  <exports>  (449) 
['/opt/xchem-fragalysis-2/maxwin/BulkDock/OUTPUTS/openbind_a71ev2a_c1_knitwork_impure_165VXJF.sdf', '/opt/xchem-fragalysis-2/maxwin/BulkDock/OUTPUTS/openbind_a71ev2a_c1_knitwork_impure_1B07QS4.sdf', '/opt/xchem-fragalysis-2/maxwin/BulkDock/OUTPUTS/openbind_a71ev2a_c1_knitwork_impure_1B07X5R.sdf', '/opt/xchem-fragalysis-2/maxwin/openbind-hippo/a71ev2a/openbind_a71ev2a_c1_scaffold_products.sdf', '/opt/xchem-fragalysis-2/maxwin/openbind-hippo/a71ev2a/cycle_01/bulkdock/openbind_a71ev2a_c1_scaffold_products.sdf', '/opt/xchem-fragalysis-2/maxwin/openbind-hippo/a71ev2a/cycle_01/bulkdock/openbind_a71ev2a_c1_scaffolds.sdf']

>  <fragmenstein_runtime>  (449) 
3.07616

$$$$
C2376-P328
     RDKit          3D

 14 14  0  0  0  0  0  0  0  0999 V2000
   12.0024   15.5517   22.2415 C   0  0  0  0  0  0  0  0  0  0  0  0
   10.9583   15.2764   23.3069 C   0  0  0  0  0  0  0  0  0  0  0  0
    9.6639   14.8342   22.6402 C   0  0  0  0  0  0  0  0  0  0  0  0
    8.4659   14.5742   23.5761 C   0  0  1  0  0  0  0  0  0  0  0  0
    7.2815   14.2576   22.6471 C   0  0  0  0  0  0  0  0  0  0  0  0
    8.7651   13.5092   24.6870 C   0  0  2  0  0  0  0  0  0  0  0  0
    9.2517   14.1976   25.9755 C   0  0  0  0  0  0  0  0  0  0  0  0
    9.8328   12.7533   24.2618 F   0  0  0  0  0  0  0  0  0  0  0  0
    7.6017   12.5109   24.9387 C   0  0  0  0  0  0  0  0  0  0  0  0
    6.5710   12.9731   25.9821 C   0  0  0  0  0  0  0  0  0  0  0  0
    5.5044   11.9177   26.2620 C   0  0  0  0  0  0  0  0  0  0  0  0
    6.0630   10.5936   26.5191 N   0  0  0  0  0  0  0  0  0  0  0  0
    6.9625   10.1647   25.4520 C   0  0  0  0  0  0  0  0  0  0  0  0
    8.1256   11.1196   25.2872 C   0  0  0  0  0  0  0  0  0  0  0  0
  1  2  1  0
  2  3  1  0
  3  4  1  0
  4  5  1  6
  4  6  1  0
  6  7  1  1
  6  8  1  0
  6  9  1  0
  9 10  1  0
 10 11  1  0
 11 12  1  0
 12 13  1  0
 13 14  1  0
 14  9  1  0
M  END
>  <ref_pdb>  (450) 
A4374a

>  <subsites>  (450) 
1 - Active Site

>  <HIPPO Compound ID>  (450) 
66949

>  <energy_score>  (450) 
-36.05205

>  <fragmenstein_mode>  (450) 
expansion

>  <scratch_subdir>  (450) 
/opt/xchem-fragalysis-2/maxwin/BulkDock/SCRATCH/512192/C2376-P328

>  <smiles>  (450) 
CCC[C@@H](C)[C@](C)(F)C1CCNCC1

>  <alias>  (450) 
C2376-P328

>  <ref_mols>  (450) 
A4374a,A1779a

>  <inspiration_score>  (450) 
None

>  <tags>  (450) 
BulkDock Fragalysis export,fragmenstein_placed,openbind_a71ev2a_c1_knitwork_impure,openbind_a71ev2a_c1_scaffolds

>  <fragmenstein_outcome>  (450) 
acceptable

>  <fragmenstein_error>  (450) 


>  <distance_score>  (450) 
0.971302

>  <inchikey>  (450) 
IKAMDUKMYVVAKK-UHFFFAOYSA-N

>  <name>  (450) 
C2376-P328

>  <HIPPO Pose ID>  (450) 
330809

>  <Energy>  (450) 
29.102391

>  <exports>  (450) 
['/opt/xchem-fragalysis-2/maxwin/BulkDock/OUTPUTS/openbind_a71ev2a_c1_knitwork_impure_165VXJF.sdf', '/opt/xchem-fragalysis-2/maxwin/BulkDock/OUTPUTS/openbind_a71ev2a_c1_knitwork_impure_1B07QS4.sdf', '/opt/xchem-fragalysis-2/maxwin/BulkDock/OUTPUTS/openbind_a71ev2a_c1_knitwork_impure_1B07X5R.sdf', '/opt/xchem-fragalysis-2/maxwin/openbind-hippo/a71ev2a/openbind_a71ev2a_c1_scaffold_products.sdf', '/opt/xchem-fragalysis-2/maxwin/openbind-hippo/a71ev2a/cycle_01/bulkdock/openbind_a71ev2a_c1_scaffold_products.sdf', '/opt/xchem-fragalysis-2/maxwin/openbind-hippo/a71ev2a/cycle_01/bulkdock/openbind_a71ev2a_c1_scaffolds.sdf']

>  <fragmenstein_runtime>  (450) 
2.63832

$$$$
C2382-P328
     RDKit          3D

 15 15  0  0  0  0  0  0  0  0999 V2000
    6.6215   10.2692   25.4411 C   0  0  0  0  0  0  0  0  0  0  0  0
    7.6704   11.0926   24.6963 C   0  0  0  0  0  0  0  0  0  0  0  0
    9.0031   10.3699   24.7840 C   0  0  0  0  0  0  0  0  0  0  0  0
    7.6288   12.5165   25.2641 C   0  0  0  0  0  0  0  0  0  0  0  0
    8.7320   13.4990   24.8872 C   0  0  0  0  0  0  0  0  0  0  0  0
    9.4610   13.8831   25.8144 O   0  0  0  0  0  0  0  0  0  0  0  0
    8.9160   13.9298   23.3733 C   0  0  0  0  0  0  0  0  0  0  0  0
    7.5441   13.9271   22.6700 C   0  0  0  0  0  0  0  0  0  0  0  0
    9.8180   12.8742   22.7485 C   0  0  0  0  0  0  0  0  0  0  0  0
    9.5213   15.2940   23.2875 N   0  0  0  0  0  0  0  0  0  0  0  0
   10.9149   15.4268   23.7352 C   0  0  0  0  0  0  0  0  0  0  0  0
   11.9841   15.1691   22.6709 C   0  0  0  0  0  0  0  0  0  0  0  0
   11.7429   15.9523   21.3944 C   0  0  0  0  0  0  0  0  0  0  0  0
   10.3137   15.7781   20.9075 C   0  0  0  0  0  0  0  0  0  0  0  0
    9.3237   16.0602   22.0374 C   0  0  0  0  0  0  0  0  0  0  0  0
  1  2  1  0
  2  3  1  0
  2  4  1  0
  4  5  1  0
  5  6  2  0
  5  7  1  0
  7  8  1  0
  7  9  1  0
  7 10  1  0
 10 11  1  0
 11 12  1  0
 12 13  1  0
 13 14  1  0
 14 15  1  0
 15 10  1  0
M  END
>  <ref_pdb>  (451) 
A4374a

>  <subsites>  (451) 
1 - Active Site

>  <HIPPO Compound ID>  (451) 
66955

>  <energy_score>  (451) 
-34.982625

>  <fragmenstein_mode>  (451) 
expansion

>  <scratch_subdir>  (451) 
/opt/xchem-fragalysis-2/maxwin/BulkDock/SCRATCH/512192/C2382-P328

>  <smiles>  (451) 
CC(C)CC(=O)C(C)(C)N1CCCCC1

>  <alias>  (451) 
C2382-P328

>  <ref_mols>  (451) 
A4374a,A1779a

>  <inspiration_score>  (451) 
None

>  <tags>  (451) 
BulkDock Fragalysis export,fragmenstein_placed,openbind_a71ev2a_c1_knitwork_impure,openbind_a71ev2a_c1_scaffolds

>  <fragmenstein_outcome>  (451) 
acceptable

>  <fragmenstein_error>  (451) 


>  <distance_score>  (451) 
0.85878

>  <inchikey>  (451) 
CMZOTFOSHDWTHE-UHFFFAOYSA-N

>  <name>  (451) 
C2382-P328

>  <HIPPO Pose ID>  (451) 
330821

>  <Energy>  (451) 
68.697426

>  <exports>  (451) 
['/opt/xchem-fragalysis-2/maxwin/BulkDock/OUTPUTS/openbind_a71ev2a_c1_knitwork_impure_165VXJF.sdf', '/opt/xchem-fragalysis-2/maxwin/BulkDock/OUTPUTS/openbind_a71ev2a_c1_knitwork_impure_1B07QS4.sdf', '/opt/xchem-fragalysis-2/maxwin/BulkDock/OUTPUTS/openbind_a71ev2a_c1_knitwork_impure_1B07X5R.sdf', '/opt/xchem-fragalysis-2/maxwin/openbind-hippo/a71ev2a/openbind_a71ev2a_c1_scaffold_products.sdf', '/opt/xchem-fragalysis-2/maxwin/openbind-hippo/a71ev2a/cycle_01/bulkdock/openbind_a71ev2a_c1_scaffold_products.sdf', '/opt/xchem-fragalysis-2/maxwin/openbind-hippo/a71ev2a/cycle_01/bulkdock/openbind_a71ev2a_c1_scaffolds.sdf']

>  <fragmenstein_runtime>  (451) 
5.604419

$$$$
C2399-P328
     RDKit          3D

 15 15  0  0  0  0  0  0  0  0999 V2000
    7.5578   14.2820   22.5104 C   0  0  0  0  0  0  0  0  0  0  0  0
    8.6123   14.2575   23.3563 C   0  0  0  0  0  0  0  0  0  0  0  0
    9.8090   15.1134   23.0450 C   0  0  0  0  0  0  0  0  0  0  0  0
   10.9896   14.5659   23.4153 F   0  0  0  0  0  0  0  0  0  0  0  0
    9.9008   15.4191   21.7261 F   0  0  0  0  0  0  0  0  0  0  0  0
    9.7227   16.2959   23.7113 F   0  0  0  0  0  0  0  0  0  0  0  0
    8.7357   13.4507   24.6518 C   0  0  2  0  0  0  0  0  0  0  0  0
    9.0080   14.3762   25.8545 C   0  0  0  0  0  0  0  0  0  0  0  0
    9.8685   12.6730   24.5667 F   0  0  0  0  0  0  0  0  0  0  0  0
    7.5357   12.4701   24.8890 C   0  0  2  0  0  0  0  0  0  0  0  0
    6.5194   12.9572   25.9370 C   0  0  0  0  0  0  0  0  0  0  0  0
    5.3869   11.9631   26.1457 C   0  0  0  0  0  0  0  0  0  0  0  0
    5.8760   10.5252   26.2468 C   0  0  0  0  0  0  0  0  0  0  0  0
    6.8525   10.1447   25.2425 N   0  0  0  0  0  0  0  0  0  0  0  0
    7.9995   11.0461   25.1952 C   0  0  0  0  0  0  0  0  0  0  0  0
  1  2  2  0
  2  3  1  0
  3  4  1  0
  3  5  1  0
  3  6  1  0
  2  7  1  0
  7  8  1  1
  7  9  1  0
  7 10  1  0
 10 11  1  1
 11 12  1  0
 12 13  1  0
 13 14  1  0
 14 15  1  0
 15 10  1  0
M  END
>  <ref_pdb>  (452) 
A4374a

>  <subsites>  (452) 
1 - Active Site

>  <HIPPO Compound ID>  (452) 
131861

>  <energy_score>  (452) 
-29.021602

>  <fragmenstein_mode>  (452) 
expansion

>  <scratch_subdir>  (452) 
/opt/xchem-fragalysis-2/maxwin/BulkDock/SCRATCH/512192/C2399-P328

>  <smiles>  (452) 
C=C(C(F)(F)F)[C@](C)(F)[C@@H]1CCCNC1

>  <alias>  (452) 
C2399-P328

>  <ref_mols>  (452) 
A4374a,A1779a

>  <inspiration_score>  (452) 
None

>  <tags>  (452) 
BulkDock Fragalysis export,fragmenstein_placed,openbind_a71ev2a_c1_knitwork_impure,openbind_a71ev2a_c1_scaffolds

>  <fragmenstein_outcome>  (452) 
acceptable

>  <fragmenstein_error>  (452) 


>  <distance_score>  (452) 
0.887994

>  <inchikey>  (452) 
VIWGUSXHUZQJLO-UHFFFAOYSA-N

>  <name>  (452) 
C2399-P328

>  <HIPPO Pose ID>  (452) 
330841

>  <Energy>  (452) 
22.485049

>  <exports>  (452) 
['/opt/xchem-fragalysis-2/maxwin/BulkDock/OUTPUTS/openbind_a71ev2a_c1_knitwork_impure_165VXJF.sdf', '/opt/xchem-fragalysis-2/maxwin/BulkDock/OUTPUTS/openbind_a71ev2a_c1_knitwork_impure_1B07QS4.sdf', '/opt/xchem-fragalysis-2/maxwin/BulkDock/OUTPUTS/openbind_a71ev2a_c1_knitwork_impure_1B07X5R.sdf', '/opt/xchem-fragalysis-2/maxwin/openbind-hippo/a71ev2a/openbind_a71ev2a_c1_scaffold_products.sdf', '/opt/xchem-fragalysis-2/maxwin/openbind-hippo/a71ev2a/cycle_01/bulkdock/openbind_a71ev2a_c1_scaffold_products.sdf', '/opt/xchem-fragalysis-2/maxwin/openbind-hippo/a71ev2a/cycle_01/bulkdock/openbind_a71ev2a_c1_scaffolds.sdf']

>  <fragmenstein_runtime>  (452) 
3.119265

$$$$
C2413-P328
     RDKit          3D

 15 15  0  0  0  0  0  0  0  0999 V2000
    7.5336   14.2992   22.6566 C   0  0  0  0  0  0  0  0  0  0  0  0
    8.6377   14.2971   23.4374 C   0  0  0  0  0  0  0  0  0  0  0  0
    9.8033   15.1681   23.0696 C   0  0  0  0  0  0  0  0  0  0  0  0
   11.0074   14.6138   23.3410 F   0  0  0  0  0  0  0  0  0  0  0  0
    9.8048   15.5014   21.7541 F   0  0  0  0  0  0  0  0  0  0  0  0
    9.7588   16.3310   23.7699 F   0  0  0  0  0  0  0  0  0  0  0  0
    8.8623   13.4713   24.7042 C   0  0  2  0  0  0  0  0  0  0  0  0
    9.2291   14.3366   25.9214 C   0  0  0  0  0  0  0  0  0  0  0  0
    9.9704   12.6749   24.4882 F   0  0  0  0  0  0  0  0  0  0  0  0
    7.6850   12.4787   25.0082 C   0  0  2  0  0  0  0  0  0  0  0  0
    6.5831   13.0485   25.9157 C   0  0  0  0  0  0  0  0  0  0  0  0
    5.4286   12.0704   26.1221 C   0  0  0  0  0  0  0  0  0  0  0  0
    5.8741   10.6208   26.2871 C   0  0  0  0  0  0  0  0  0  0  0  0
    7.0636   10.2290   25.4232 C   0  0  0  0  0  0  0  0  0  0  0  0
    8.1415   11.1986   25.5821 N   0  0  0  0  0  0  0  0  0  0  0  0
  1  2  2  0
  2  3  1  0
  3  4  1  0
  3  5  1  0
  3  6  1  0
  2  7  1  0
  7  8  1  1
  7  9  1  0
  7 10  1  0
 10 11  1  1
 11 12  1  0
 12 13  1  0
 13 14  1  0
 14 15  1  0
 15 10  1  0
M  END
>  <ref_pdb>  (453) 
A4374a

>  <subsites>  (453) 
1 - Active Site

>  <HIPPO Compound ID>  (453) 
7634

>  <energy_score>  (453) 
-21.001987

>  <fragmenstein_mode>  (453) 
expansion

>  <scratch_subdir>  (453) 
/opt/xchem-fragalysis-2/maxwin/BulkDock/SCRATCH/512192/C2413-P328

>  <smiles>  (453) 
C=C(C(F)(F)F)[C@](C)(F)[C@@H]1CCCCN1

>  <alias>  (453) 
C2413-P328

>  <ref_mols>  (453) 
A4374a,A1779a

>  <inspiration_score>  (453) 
None

>  <tags>  (453) 
BulkDock Fragalysis export,fragmenstein_placed,openbind_a71ev2a_c1_knitwork_impure,openbind_a71ev2a_c1_scaffolds

>  <fragmenstein_outcome>  (453) 
acceptable

>  <fragmenstein_error>  (453) 


>  <distance_score>  (453) 
0.885237

>  <inchikey>  (453) 
RXBXROWIEPMBRV-UHFFFAOYSA-N

>  <name>  (453) 
C2413-P328

>  <HIPPO Pose ID>  (453) 
330859

>  <Energy>  (453) 
45.284449

>  <exports>  (453) 
['/opt/xchem-fragalysis-2/maxwin/BulkDock/OUTPUTS/openbind_a71ev2a_c1_knitwork_impure_165VXJF.sdf', '/opt/xchem-fragalysis-2/maxwin/BulkDock/OUTPUTS/openbind_a71ev2a_c1_knitwork_impure_1B07QS4.sdf', '/opt/xchem-fragalysis-2/maxwin/BulkDock/OUTPUTS/openbind_a71ev2a_c1_knitwork_impure_1B07X5R.sdf', '/opt/xchem-fragalysis-2/maxwin/openbind-hippo/a71ev2a/openbind_a71ev2a_c1_scaffold_products.sdf', '/opt/xchem-fragalysis-2/maxwin/openbind-hippo/a71ev2a/cycle_01/bulkdock/openbind_a71ev2a_c1_scaffold_products.sdf', '/opt/xchem-fragalysis-2/maxwin/openbind-hippo/a71ev2a/cycle_01/bulkdock/openbind_a71ev2a_c1_scaffolds.sdf']

>  <fragmenstein_runtime>  (453) 
2.743754

$$$$
C37857-P128
     RDKit          3D

 17 17  0  0  0  0  0  0  0  0999 V2000
   12.6440   16.0344   21.7944 C   0  0  0  0  0  0  0  0  0  0  0  0
   11.7112   15.0429   21.1470 C   0  0  2  0  0  0  0  0  0  0  0  0
   11.6083   13.8097   22.0328 C   0  0  0  0  0  0  0  0  0  0  0  0
   10.5175   13.8790   22.9721 N   0  0  0  0  0  0  0  0  0  0  0  0
    8.9732   13.8933   22.7333 C   0  0  0  0  0  0  0  0  0  0  0  0
    8.3604   13.9289   21.7359 O   0  0  0  0  0  0  0  0  0  0  0  0
    8.2963   13.7367   24.1054 C   0  0  1  0  0  0  0  0  0  0  0  0
    7.0135   14.1987   24.0712 F   0  0  0  0  0  0  0  0  0  0  0  0
    8.3238   12.3267   24.5271 N   0  0  0  0  0  0  0  0  0  0  0  0
    8.9430   11.2597   23.9170 C   0  0  0  0  0  0  0  0  0  0  0  0
    8.4893   10.1314   24.5551 C   0  0  0  0  0  0  0  0  0  0  0  0
    7.6897   10.6186   25.5990 C   0  0  0  0  0  0  0  0  0  0  0  0
    7.7114   11.9514   25.6795 N   0  0  0  0  0  0  0  0  0  0  0  0
   12.1338   14.7094   19.7151 C   0  0  0  0  0  0  0  0  0  0  0  0
   12.6921   15.8813   18.9298 C   0  0  0  0  0  0  0  0  0  0  0  0
   13.0418   13.7165   19.7282 F   0  0  0  0  0  0  0  0  0  0  0  0
   11.0996   14.1636   19.0363 F   0  0  0  0  0  0  0  0  0  0  0  0
  2  1  1  1
  2  3  1  0
  3  4  1  0
  4  5  1  0
  5  6  2  0
  5  7  1  0
  7  8  1  6
  7  9  1  0
  9 10  1  0
 10 11  2  0
 11 12  1  0
 12 13  2  0
  2 14  1  0
 14 15  1  0
 14 16  1  0
 14 17  1  0
 13  9  1  0
M  END
>  <ref_pdb>  (454) 
A2304a

>  <subsites>  (454) 
1 - Active Site

>  <HIPPO Compound ID>  (454) 
1120

>  <energy_score>  (454) 
-8.668216

>  <fragmenstein_mode>  (454) 
expansion

>  <scratch_subdir>  (454) 
/opt/xchem-fragalysis-2/maxwin/BulkDock/SCRATCH/512192/C37857-P128

>  <smiles>  (454) 
C[C@H](CNC(=O)[C@@H](F)n1cccn1)C(C)(F)F

>  <alias>  (454) 
C37857-P128

>  <ref_mols>  (454) 
A2304a,A0719a

>  <inspiration_score>  (454) 
None

>  <tags>  (454) 
BulkDock Fragalysis export,fragmenstein_placed,openbind_a71ev2a_c1_knitwork_impure,openbind_a71ev2a_c1_scaffolds

>  <fragmenstein_outcome>  (454) 
acceptable

>  <fragmenstein_error>  (454) 


>  <distance_score>  (454) 
0.86442

>  <inchikey>  (454) 
PCPXIHBDOBZPNO-UHFFFAOYSA-N

>  <name>  (454) 
C37857-P128

>  <HIPPO Pose ID>  (454) 
331482

>  <Energy>  (454) 
99.693354

>  <exports>  (454) 
['/opt/xchem-fragalysis-2/maxwin/BulkDock/OUTPUTS/openbind_a71ev2a_c1_knitwork_impure_165VXJF.sdf', '/opt/xchem-fragalysis-2/maxwin/BulkDock/OUTPUTS/openbind_a71ev2a_c1_knitwork_impure_1B07QS4.sdf', '/opt/xchem-fragalysis-2/maxwin/BulkDock/OUTPUTS/openbind_a71ev2a_c1_knitwork_impure_1B07X5R.sdf', '/opt/xchem-fragalysis-2/maxwin/openbind-hippo/a71ev2a/openbind_a71ev2a_c1_scaffold_products.sdf', '/opt/xchem-fragalysis-2/maxwin/openbind-hippo/a71ev2a/cycle_01/bulkdock/openbind_a71ev2a_c1_scaffold_products.sdf', '/opt/xchem-fragalysis-2/maxwin/openbind-hippo/a71ev2a/cycle_01/bulkdock/openbind_a71ev2a_c1_scaffolds.sdf']

>  <fragmenstein_runtime>  (454) 
5.567169

$$$$
C6791-P439
     RDKit          3D

 12 13  0  0  0  0  0  0  0  0999 V2000
    9.2544   10.2729   23.7468 C   0  0  0  0  0  0  0  0  0  0  0  0
    9.4846   11.5554   23.2954 C   0  0  0  0  0  0  0  0  0  0  0  0
    8.8113   12.5856   23.9190 C   0  0  0  0  0  0  0  0  0  0  0  0
    9.0690   13.9163   23.6454 N   0  0  0  0  0  0  0  0  0  0  0  0
   10.3449   14.4201   24.1563 C   0  0  0  0  0  0  0  0  0  0  0  0
   11.4714   14.3410   23.1298 C   0  0  0  0  0  0  0  0  0  0  0  0
   11.1198   15.3760   21.6925 S   0  0  0  0  0  0  0  0  0  0  0  0
    9.5085   14.6547   21.2652 C   0  0  0  0  0  0  0  0  0  0  0  0
    8.5263   14.5593   22.4384 C   0  0  0  0  0  0  0  0  0  0  0  0
    7.9424   12.3290   24.9097 N   0  0  0  0  0  0  0  0  0  0  0  0
    7.7889   11.0480   25.2781 C   0  0  0  0  0  0  0  0  0  0  0  0
    8.4110    9.9895   24.7481 N   0  0  0  0  0  0  0  0  0  0  0  0
  1  2  2  0
  2  3  1  0
  3  4  1  0
  4  5  1  0
  5  6  1  0
  6  7  1  0
  7  8  1  0
  8  9  1  0
  3 10  2  0
 10 11  1  0
 11 12  2  0
 12  1  1  0
  9  4  1  0
M  END
>  <ref_pdb>  (455) 
A4706a

>  <subsites>  (455) 
1 - Active Site

>  <HIPPO Compound ID>  (455) 
686

>  <energy_score>  (455) 
-6.156808

>  <fragmenstein_mode>  (455) 
expansion

>  <scratch_subdir>  (455) 
/opt/xchem-fragalysis-2/maxwin/BulkDock/SCRATCH/512192/C6791-P439

>  <smiles>  (455) 
c1cc(N2CCSCC2)ncn1

>  <alias>  (455) 
C6791-P439

>  <ref_mols>  (455) 
A4706a,A1068a

>  <inspiration_score>  (455) 
None

>  <tags>  (455) 
BulkDock Fragalysis export,fragmenstein_placed,openbind_a71ev2a_c1_knitwork_impure,openbind_a71ev2a_c1_scaffolds

>  <fragmenstein_outcome>  (455) 
acceptable

>  <fragmenstein_error>  (455) 


>  <distance_score>  (455) 
0.793384

>  <inchikey>  (455) 
SAIOTEOVHAXKQN-UHFFFAOYSA-N

>  <name>  (455) 
C6791-P439

>  <HIPPO Pose ID>  (455) 
331793

>  <Energy>  (455) 
14.59488

>  <exports>  (455) 
['/opt/xchem-fragalysis-2/maxwin/BulkDock/OUTPUTS/openbind_a71ev2a_c1_knitwork_impure_165VXJF.sdf', '/opt/xchem-fragalysis-2/maxwin/BulkDock/OUTPUTS/openbind_a71ev2a_c1_knitwork_impure_1B07QS4.sdf', '/opt/xchem-fragalysis-2/maxwin/BulkDock/OUTPUTS/openbind_a71ev2a_c1_knitwork_impure_1B07X5R.sdf', '/opt/xchem-fragalysis-2/maxwin/openbind-hippo/a71ev2a/openbind_a71ev2a_c1_scaffold_products.sdf', '/opt/xchem-fragalysis-2/maxwin/openbind-hippo/a71ev2a/cycle_01/bulkdock/openbind_a71ev2a_c1_scaffold_products.sdf', '/opt/xchem-fragalysis-2/maxwin/openbind-hippo/a71ev2a/cycle_01/bulkdock/openbind_a71ev2a_c1_scaffolds.sdf']

>  <fragmenstein_runtime>  (455) 
1.201973

$$$$
C4581-P20
     RDKit          3D

 16 17  0  0  0  0  0  0  0  0999 V2000
   14.7501   24.8009   19.2346 C   0  0  0  0  0  0  0  0  0  0  0  0
   14.3615   24.3023   20.5433 N   0  0  0  0  0  0  0  0  0  0  0  0
   13.5467   25.0818   21.3375 C   0  0  0  0  0  0  0  0  0  0  0  0
   13.1758   24.6783   22.5583 C   0  0  0  0  0  0  0  0  0  0  0  0
   13.6120   23.4051   23.0999 C   0  0  0  0  0  0  0  0  0  0  0  0
   13.2009   23.0132   24.3732 N   0  0  0  0  0  0  0  0  0  0  0  0
   11.7951   22.9338   24.8418 C   0  0  2  0  0  0  0  0  0  0  0  0
   11.3667   24.2478   25.5009 C   0  0  0  0  0  0  0  0  0  0  0  0
    9.8607   24.4965   25.4402 C   0  0  0  0  0  0  0  0  0  0  0  0
    8.9577   23.3210   25.8017 C   0  0  0  0  0  0  0  0  0  0  0  0
    9.4913   22.4318   26.9100 C   0  0  0  0  0  0  0  0  0  0  0  0
   10.3826   21.4025   26.4206 N   0  0  0  0  0  0  0  0  0  0  0  0
   11.6782   21.7751   25.8771 C   0  0  0  0  0  0  0  0  0  0  0  0
   14.4607   22.6704   22.3576 C   0  0  0  0  0  0  0  0  0  0  0  0
   14.8846   23.0935   20.9942 C   0  0  0  0  0  0  0  0  0  0  0  0
   15.6437   22.3800   20.3438 O   0  0  0  0  0  0  0  0  0  0  0  0
  1  2  1  0
  2  3  1  0
  3  4  2  0
  4  5  1  0
  5  6  1  0
  7  6  1  1
  7  8  1  0
  8  9  1  0
  9 10  1  0
 10 11  1  0
 11 12  1  0
 12 13  1  0
  5 14  2  0
 14 15  1  0
 15 16  2  0
 15  2  1  0
 13  7  1  0
M  END
>  <ref_pdb>  (456) 
A0525a

>  <subsites>  (456) 
1 - Active Site,4 - A0525/A/246/1

>  <HIPPO Compound ID>  (456) 
2396

>  <energy_score>  (456) 
-36.476669

>  <fragmenstein_mode>  (456) 
expansion

>  <scratch_subdir>  (456) 
/opt/xchem-fragalysis-2/maxwin/BulkDock/SCRATCH/512192/C4581-P20

>  <smiles>  (456) 
Cn1ccc(N[C@@H]2CCCCNC2)cc1=O

>  <alias>  (456) 
C4581-P20

>  <ref_mols>  (456) 
A0525a,A4994a

>  <inspiration_score>  (456) 
None

>  <tags>  (456) 
BulkDock Fragalysis export,fragmenstein_placed,openbind_a71ev2a_c1_knitwork_impure,openbind_a71ev2a_c1_scaffolds

>  <fragmenstein_outcome>  (456) 
acceptable

>  <fragmenstein_error>  (456) 


>  <distance_score>  (456) 
0.901197

>  <inchikey>  (456) 
KQFUVIPQGHKRPL-UHFFFAOYSA-N

>  <name>  (456) 
C4581-P20

>  <HIPPO Pose ID>  (456) 
331985

>  <Energy>  (456) 
32.375948

>  <exports>  (456) 
['/opt/xchem-fragalysis-2/maxwin/BulkDock/OUTPUTS/openbind_a71ev2a_c1_knitwork_impure_165VXJF.sdf', '/opt/xchem-fragalysis-2/maxwin/BulkDock/OUTPUTS/openbind_a71ev2a_c1_knitwork_impure_1B07QS4.sdf', '/opt/xchem-fragalysis-2/maxwin/BulkDock/OUTPUTS/openbind_a71ev2a_c1_knitwork_impure_1B07X5R.sdf', '/opt/xchem-fragalysis-2/maxwin/openbind-hippo/a71ev2a/openbind_a71ev2a_c1_scaffold_products.sdf', '/opt/xchem-fragalysis-2/maxwin/openbind-hippo/a71ev2a/cycle_01/bulkdock/openbind_a71ev2a_c1_scaffold_products.sdf', '/opt/xchem-fragalysis-2/maxwin/openbind-hippo/a71ev2a/cycle_01/bulkdock/openbind_a71ev2a_c1_scaffolds.sdf']

>  <fragmenstein_runtime>  (456) 
3.002572

$$$$
C4584-P20
     RDKit          3D

 18 19  0  0  0  0  0  0  0  0999 V2000
   14.2344   24.9270   25.6316 C   0  0  0  0  0  0  0  0  0  0  0  0
   14.5488   23.6466   25.3902 C   0  0  0  0  0  0  0  0  0  0  0  0
   14.0565   22.7836   24.2565 C   0  0  0  0  0  0  0  0  0  0  0  0
   12.8164   23.2132   23.6887 O   0  0  0  0  0  0  0  0  0  0  0  0
   11.6913   23.1846   24.5033 C   0  0  0  0  0  0  0  0  0  0  0  0
   10.7700   24.1488   24.3572 C   0  0  0  0  0  0  0  0  0  0  0  0
    9.5885   24.2096   25.1734 C   0  0  0  0  0  0  0  0  0  0  0  0
    9.4217   23.3293   26.1633 C   0  0  0  0  0  0  0  0  0  0  0  0
   10.3505   22.3344   26.3926 N   0  0  0  0  0  0  0  0  0  0  0  0
   10.2248   21.5038   27.5884 C   0  0  0  0  0  0  0  0  0  0  0  0
   11.1158   21.9927   28.7488 C   0  0  0  0  0  0  0  0  0  0  0  0
   10.6817   23.3660   29.2845 C   0  0  0  0  0  0  0  0  0  0  0  0
   11.4884   23.7682   30.5175 C   0  0  0  0  0  0  0  0  0  0  0  0
   11.3954   22.7577   31.5704 N   0  0  0  0  0  0  0  0  0  0  0  0
   11.8979   21.4667   31.1007 C   0  0  0  0  0  0  0  0  0  0  0  0
   11.1062   20.9692   29.8945 C   0  0  0  0  0  0  0  0  0  0  0  0
   11.4545   22.1296   25.5559 C   0  0  0  0  0  0  0  0  0  0  0  0
   12.2179   21.1763   25.6627 O   0  0  0  0  0  0  0  0  0  0  0  0
  1  2  2  0
  2  3  1  0
  3  4  1  0
  4  5  1  0
  5  6  2  0
  6  7  1  0
  7  8  2  0
  8  9  1  0
  9 10  1  0
 10 11  1  0
 11 12  1  0
 12 13  1  0
 13 14  1  0
 14 15  1  0
 15 16  1  0
  9 17  1  0
 17 18  2  0
 17  5  1  0
 16 11  1  0
M  END
>  <ref_pdb>  (457) 
A0525a

>  <subsites>  (457) 
1 - Active Site,4 - A0525/A/246/1

>  <HIPPO Compound ID>  (457) 
29678

>  <energy_score>  (457) 
-37.312647

>  <fragmenstein_mode>  (457) 
expansion

>  <scratch_subdir>  (457) 
/opt/xchem-fragalysis-2/maxwin/BulkDock/SCRATCH/512192/C4584-P20

>  <smiles>  (457) 
C=CCOc1cccn(CC2CCNCC2)c1=O

>  <alias>  (457) 
C4584-P20

>  <ref_mols>  (457) 
A0525a,A4994a

>  <inspiration_score>  (457) 
None

>  <tags>  (457) 
BulkDock Fragalysis export,fragmenstein_placed,openbind_a71ev2a_c1_knitwork_impure,openbind_a71ev2a_c1_scaffolds

>  <fragmenstein_outcome>  (457) 
acceptable

>  <fragmenstein_error>  (457) 


>  <distance_score>  (457) 
0.762911

>  <inchikey>  (457) 
VOTQTKPUGDWATD-UHFFFAOYSA-N

>  <name>  (457) 
C4584-P20

>  <HIPPO Pose ID>  (457) 
331990

>  <Energy>  (457) 
43.17786

>  <exports>  (457) 
['/opt/xchem-fragalysis-2/maxwin/BulkDock/OUTPUTS/openbind_a71ev2a_c1_knitwork_impure_165VXJF.sdf', '/opt/xchem-fragalysis-2/maxwin/BulkDock/OUTPUTS/openbind_a71ev2a_c1_knitwork_impure_1B07QS4.sdf', '/opt/xchem-fragalysis-2/maxwin/BulkDock/OUTPUTS/openbind_a71ev2a_c1_knitwork_impure_1B07X5R.sdf', '/opt/xchem-fragalysis-2/maxwin/openbind-hippo/a71ev2a/openbind_a71ev2a_c1_scaffold_products.sdf', '/opt/xchem-fragalysis-2/maxwin/openbind-hippo/a71ev2a/cycle_01/bulkdock/openbind_a71ev2a_c1_scaffold_products.sdf', '/opt/xchem-fragalysis-2/maxwin/openbind-hippo/a71ev2a/cycle_01/bulkdock/openbind_a71ev2a_c1_scaffolds.sdf']

>  <fragmenstein_runtime>  (457) 
3.199923

$$$$
C8131-P308
     RDKit          3D

 13 13  0  0  0  0  0  0  0  0999 V2000
   11.8073   15.1399   23.1620 C   0  0  0  0  0  0  0  0  0  0  0  0
   10.6421   15.1238   22.8773 C   0  0  0  0  0  0  0  0  0  0  0  0
    9.2301   15.1061   22.4789 C   0  0  0  0  0  0  0  0  0  0  0  0
    8.4482   13.9569   23.0850 C   0  0  0  0  0  0  0  0  0  0  0  0
    7.5875   13.3677   22.4244 O   0  0  0  0  0  0  0  0  0  0  0  0
    8.7049   13.6553   24.5718 C   0  0  1  0  0  0  0  0  0  0  0  0
    8.4132   14.8147   25.3517 O   0  0  0  0  0  0  0  0  0  0  0  0
    7.9807   12.4522   25.1797 C   0  0  0  0  0  0  0  0  0  0  0  0
    8.2429   11.1440   24.4380 C   0  0  0  0  0  0  0  0  0  0  0  0
    7.5428    9.9869   25.1294 C   0  0  0  0  0  0  0  0  0  0  0  0
    6.1327   10.2041   25.4093 N   0  0  0  0  0  0  0  0  0  0  0  0
    5.8469   11.4594   26.0854 C   0  0  0  0  0  0  0  0  0  0  0  0
    6.4813   12.6665   25.4054 C   0  0  0  0  0  0  0  0  0  0  0  0
  1  2  3  0
  2  3  1  0
  3  4  1  0
  4  5  2  0
  4  6  1  0
  6  7  1  1
  6  8  1  0
  8  9  1  0
  9 10  1  0
 10 11  1  0
 11 12  1  0
 12 13  1  0
 13  8  1  0
M  END
>  <ref_pdb>  (458) 
A4331a

>  <subsites>  (458) 
1 - Active Site

>  <HIPPO Compound ID>  (458) 
27712

>  <energy_score>  (458) 
-28.63661

>  <fragmenstein_mode>  (458) 
expansion

>  <scratch_subdir>  (458) 
/opt/xchem-fragalysis-2/maxwin/BulkDock/SCRATCH/512192/C8131-P308

>  <smiles>  (458) 
C#CCC(=O)[C@@H](O)C1CCNCC1

>  <alias>  (458) 
C8131-P308

>  <ref_mols>  (458) 
A4331a,A0719a

>  <inspiration_score>  (458) 
None

>  <tags>  (458) 
BulkDock Fragalysis export,fragmenstein_placed,openbind_a71ev2a_c1_knitwork_impure,openbind_a71ev2a_c1_scaffolds

>  <fragmenstein_outcome>  (458) 
acceptable

>  <fragmenstein_error>  (458) 


>  <distance_score>  (458) 
0.959517

>  <inchikey>  (458) 
GDQVYSCIVDEKLE-UHFFFAOYSA-N

>  <name>  (458) 
C8131-P308

>  <HIPPO Pose ID>  (458) 
332342

>  <Energy>  (458) 
41.74817

>  <exports>  (458) 
['/opt/xchem-fragalysis-2/maxwin/BulkDock/OUTPUTS/openbind_a71ev2a_c1_knitwork_impure_165VXJF.sdf', '/opt/xchem-fragalysis-2/maxwin/BulkDock/OUTPUTS/openbind_a71ev2a_c1_knitwork_impure_1B07QS4.sdf', '/opt/xchem-fragalysis-2/maxwin/BulkDock/OUTPUTS/openbind_a71ev2a_c1_knitwork_impure_1B07X5R.sdf', '/opt/xchem-fragalysis-2/maxwin/openbind-hippo/a71ev2a/openbind_a71ev2a_c1_scaffold_products.sdf', '/opt/xchem-fragalysis-2/maxwin/openbind-hippo/a71ev2a/cycle_01/bulkdock/openbind_a71ev2a_c1_scaffold_products.sdf', '/opt/xchem-fragalysis-2/maxwin/openbind-hippo/a71ev2a/cycle_01/bulkdock/openbind_a71ev2a_c1_scaffolds.sdf']

>  <fragmenstein_runtime>  (458) 
1.562101

$$$$
C8152-P308
     RDKit          3D

 14 14  0  0  0  0  0  0  0  0999 V2000
    9.2249    8.9040   23.6765 C   0  0  0  0  0  0  0  0  0  0  0  0
    9.1476   10.3851   23.9916 C   0  0  0  0  0  0  0  0  0  0  0  0
    7.8259   10.6745   24.4863 O   0  0  0  0  0  0  0  0  0  0  0  0
    7.5265   11.8560   25.0814 C   0  0  0  0  0  0  0  0  0  0  0  0
    6.5146   11.9686   25.7726 O   0  0  0  0  0  0  0  0  0  0  0  0
    8.4812   13.0357   24.8795 C   0  0  2  0  0  0  0  0  0  0  0  0
    8.2669   14.0222   25.9031 O   0  0  0  0  0  0  0  0  0  0  0  0
    8.2815   13.7206   23.5110 C   0  0  0  0  0  0  0  0  0  0  0  0
    9.5313   14.1304   22.8350 N   0  0  0  0  0  0  0  0  0  0  0  0
   10.4442   14.9025   23.6904 C   0  0  0  0  0  0  0  0  0  0  0  0
   11.7638   15.0994   22.9504 C   0  0  0  0  0  0  0  0  0  0  0  0
   11.5608   15.9064   21.6778 C   0  0  0  0  0  0  0  0  0  0  0  0
   10.4884   15.2547   20.8153 C   0  0  0  0  0  0  0  0  0  0  0  0
    9.2271   14.9192   21.6184 C   0  0  0  0  0  0  0  0  0  0  0  0
  1  2  1  0
  2  3  1  0
  3  4  1  0
  4  5  2  0
  4  6  1  0
  6  7  1  1
  6  8  1  0
  8  9  1  0
  9 10  1  0
 10 11  1  0
 11 12  1  0
 12 13  1  0
 13 14  1  0
 14  9  1  0
M  END
>  <ref_pdb>  (459) 
A4331a

>  <subsites>  (459) 
1 - Active Site

>  <HIPPO Compound ID>  (459) 
6091

>  <energy_score>  (459) 
-24.492402

>  <fragmenstein_mode>  (459) 
expansion

>  <scratch_subdir>  (459) 
/opt/xchem-fragalysis-2/maxwin/BulkDock/SCRATCH/512192/C8152-P308

>  <smiles>  (459) 
CCOC(=O)[C@H](O)CN1CCCCC1

>  <alias>  (459) 
C8152-P308

>  <ref_mols>  (459) 
A4331a,A0719a

>  <inspiration_score>  (459) 
None

>  <tags>  (459) 
BulkDock Fragalysis export,fragmenstein_placed,openbind_a71ev2a_c1_knitwork_impure,openbind_a71ev2a_c1_scaffolds

>  <fragmenstein_outcome>  (459) 
acceptable

>  <fragmenstein_error>  (459) 


>  <distance_score>  (459) 
0.76712

>  <inchikey>  (459) 
COBZFPMMXCEFIL-UHFFFAOYSA-N

>  <name>  (459) 
C8152-P308

>  <HIPPO Pose ID>  (459) 
332364

>  <Energy>  (459) 
55.553687

>  <exports>  (459) 
['/opt/xchem-fragalysis-2/maxwin/BulkDock/OUTPUTS/openbind_a71ev2a_c1_knitwork_impure_165VXJF.sdf', '/opt/xchem-fragalysis-2/maxwin/BulkDock/OUTPUTS/openbind_a71ev2a_c1_knitwork_impure_1B07QS4.sdf', '/opt/xchem-fragalysis-2/maxwin/BulkDock/OUTPUTS/openbind_a71ev2a_c1_knitwork_impure_1B07X5R.sdf', '/opt/xchem-fragalysis-2/maxwin/openbind-hippo/a71ev2a/openbind_a71ev2a_c1_scaffold_products.sdf', '/opt/xchem-fragalysis-2/maxwin/openbind-hippo/a71ev2a/cycle_01/bulkdock/openbind_a71ev2a_c1_scaffold_products.sdf', '/opt/xchem-fragalysis-2/maxwin/openbind-hippo/a71ev2a/cycle_01/bulkdock/openbind_a71ev2a_c1_scaffolds.sdf']

>  <fragmenstein_runtime>  (459) 
1.943138

$$$$
C8163-P308
     RDKit          3D

 15 15  0  0  0  0  0  0  0  0999 V2000
   11.3253   15.4925   20.0171 C   0  0  0  0  0  0  0  0  0  0  0  0
   11.6005   15.2806   21.1655 C   0  0  0  0  0  0  0  0  0  0  0  0
   11.8421   14.9304   22.5690 C   0  0  0  0  0  0  0  0  0  0  0  0
   10.6663   15.3344   23.4483 C   0  0  0  0  0  0  0  0  0  0  0  0
    9.3866   14.8327   22.9290 N   0  0  0  0  0  0  0  0  0  0  0  0
    8.8461   13.3016   23.3006 S   0  0  0  0  0  0  0  0  0  0  0  0
    7.6761   13.0749   22.4801 O   0  0  0  0  0  0  0  0  0  0  0  0
    9.9553   12.3769   23.3419 O   0  0  0  0  0  0  0  0  0  0  0  0
    8.3014   13.5658   24.9494 C   0  0  0  0  0  0  0  0  0  0  0  0
    7.5184   12.4226   25.5602 C   0  0  1  0  0  0  0  0  0  0  0  0
    6.0424   12.7628   25.7277 C   0  0  0  0  0  0  0  0  0  0  0  0
    5.3853   11.7091   26.6040 C   0  0  0  0  0  0  0  0  0  0  0  0
    5.7067   10.2952   26.1392 C   0  0  0  0  0  0  0  0  0  0  0  0
    7.1095   10.0360   25.8546 N   0  0  0  0  0  0  0  0  0  0  0  0
    7.7249   11.0270   24.9840 C   0  0  0  0  0  0  0  0  0  0  0  0
  1  2  3  0
  2  3  1  0
  3  4  1  0
  4  5  1  0
  5  6  1  0
  6  7  2  0
  6  8  2  0
  6  9  1  0
 10  9  1  6
 10 11  1  0
 11 12  1  0
 12 13  1  0
 13 14  1  0
 14 15  1  0
 15 10  1  0
M  END
>  <ref_pdb>  (460) 
A4331a

>  <subsites>  (460) 
1 - Active Site

>  <HIPPO Compound ID>  (460) 
13816

>  <energy_score>  (460) 
-57.210835

>  <fragmenstein_mode>  (460) 
expansion

>  <scratch_subdir>  (460) 
/opt/xchem-fragalysis-2/maxwin/BulkDock/SCRATCH/512192/C8163-P308

>  <smiles>  (460) 
C#CCCNS(=O)(=O)C[C@H]1CCCNC1

>  <alias>  (460) 
C8163-P308

>  <ref_mols>  (460) 
A4331a,A0719a

>  <inspiration_score>  (460) 
None

>  <tags>  (460) 
BulkDock Fragalysis export,fragmenstein_placed,openbind_a71ev2a_c1_knitwork_impure,openbind_a71ev2a_c1_scaffolds

>  <fragmenstein_outcome>  (460) 
acceptable

>  <fragmenstein_error>  (460) 


>  <distance_score>  (460) 
0.899907

>  <inchikey>  (460) 
YLJSCEDYXYHCFH-UHFFFAOYSA-N

>  <name>  (460) 
C8163-P308

>  <HIPPO Pose ID>  (460) 
332371

>  <Energy>  (460) 
-58.147889

>  <exports>  (460) 
['/opt/xchem-fragalysis-2/maxwin/BulkDock/OUTPUTS/openbind_a71ev2a_c1_knitwork_impure_165VXJF.sdf', '/opt/xchem-fragalysis-2/maxwin/BulkDock/OUTPUTS/openbind_a71ev2a_c1_knitwork_impure_1B07QS4.sdf', '/opt/xchem-fragalysis-2/maxwin/BulkDock/OUTPUTS/openbind_a71ev2a_c1_knitwork_impure_1B07X5R.sdf', '/opt/xchem-fragalysis-2/maxwin/openbind-hippo/a71ev2a/openbind_a71ev2a_c1_scaffold_products.sdf', '/opt/xchem-fragalysis-2/maxwin/openbind-hippo/a71ev2a/cycle_01/bulkdock/openbind_a71ev2a_c1_scaffold_products.sdf', '/opt/xchem-fragalysis-2/maxwin/openbind-hippo/a71ev2a/cycle_01/bulkdock/openbind_a71ev2a_c1_scaffolds.sdf']

>  <fragmenstein_runtime>  (460) 
2.993128

$$$$
C8173-P308
     RDKit          3D

 17 17  0  0  0  0  0  0  0  0999 V2000
    7.5322   13.2496   22.2912 O   0  0  0  0  0  0  0  0  0  0  0  0
    8.2799   13.9144   22.8938 C   0  0  0  0  0  0  0  0  0  0  0  0
    9.2041   15.0735   22.4216 N   0  0  0  0  0  0  0  0  0  0  0  0
    9.4637   15.5832   21.0981 C   0  0  0  0  0  0  0  0  0  0  0  0
   10.8939   15.2603   20.7068 C   0  0  0  0  0  0  0  0  0  0  0  0
   11.1194   15.4479   19.2316 C   0  0  0  0  0  0  0  0  0  0  0  0
   10.5083   14.5125   18.4933 F   0  0  0  0  0  0  0  0  0  0  0  0
   10.6885   16.6573   18.8258 F   0  0  0  0  0  0  0  0  0  0  0  0
   12.4366   15.3477   18.9565 F   0  0  0  0  0  0  0  0  0  0  0  0
    8.6263   13.7190   24.3823 C   0  0  1  0  0  0  0  0  0  0  0  0
    8.4767   14.8798   25.0881 F   0  0  0  0  0  0  0  0  0  0  0  0
    7.9126   12.6059   25.1386 C   0  0  0  0  0  0  0  0  0  0  0  0
    8.1328   11.2229   24.5277 C   0  0  0  0  0  0  0  0  0  0  0  0
    7.3957   10.1572   25.3182 C   0  0  0  0  0  0  0  0  0  0  0  0
    5.9942   10.4483   25.5570 N   0  0  0  0  0  0  0  0  0  0  0  0
    5.7623   11.7608   26.1474 C   0  0  0  0  0  0  0  0  0  0  0  0
    6.4272   12.8877   25.3608 C   0  0  0  0  0  0  0  0  0  0  0  0
  1  2  2  0
  2  3  1  0
  3  4  1  0
  4  5  1  0
  5  6  1  0
  6  7  1  0
  6  8  1  0
  6  9  1  0
  2 10  1  0
 10 11  1  1
 10 12  1  0
 12 13  1  0
 13 14  1  0
 14 15  1  0
 15 16  1  0
 16 17  1  0
 17 12  1  0
M  END
>  <ref_pdb>  (461) 
A4331a

>  <subsites>  (461) 
1 - Active Site

>  <HIPPO Compound ID>  (461) 
29694

>  <energy_score>  (461) 
-8.012444

>  <fragmenstein_mode>  (461) 
expansion

>  <scratch_subdir>  (461) 
/opt/xchem-fragalysis-2/maxwin/BulkDock/SCRATCH/512192/C8173-P308

>  <smiles>  (461) 
O=C(NCCC(F)(F)F)[C@@H](F)C1CCNCC1

>  <alias>  (461) 
C8173-P308

>  <ref_mols>  (461) 
A4331a,A0719a

>  <inspiration_score>  (461) 
None

>  <tags>  (461) 
BulkDock Fragalysis export,fragmenstein_placed,openbind_a71ev2a_c1_knitwork_impure,openbind_a71ev2a_c1_scaffolds

>  <fragmenstein_outcome>  (461) 
acceptable

>  <fragmenstein_error>  (461) 


>  <distance_score>  (461) 
0.954878

>  <inchikey>  (461) 
OAMNIYGWLQGWFH-UHFFFAOYSA-N

>  <name>  (461) 
C8173-P308

>  <HIPPO Pose ID>  (461) 
332381

>  <Energy>  (461) 
22.713828

>  <exports>  (461) 
['/opt/xchem-fragalysis-2/maxwin/BulkDock/OUTPUTS/openbind_a71ev2a_c1_knitwork_impure_165VXJF.sdf', '/opt/xchem-fragalysis-2/maxwin/BulkDock/OUTPUTS/openbind_a71ev2a_c1_knitwork_impure_1B07QS4.sdf', '/opt/xchem-fragalysis-2/maxwin/BulkDock/OUTPUTS/openbind_a71ev2a_c1_knitwork_impure_1B07X5R.sdf', '/opt/xchem-fragalysis-2/maxwin/openbind-hippo/a71ev2a/openbind_a71ev2a_c1_scaffold_products.sdf', '/opt/xchem-fragalysis-2/maxwin/openbind-hippo/a71ev2a/cycle_01/bulkdock/openbind_a71ev2a_c1_scaffold_products.sdf', '/opt/xchem-fragalysis-2/maxwin/openbind-hippo/a71ev2a/cycle_01/bulkdock/openbind_a71ev2a_c1_scaffolds.sdf']

>  <fragmenstein_runtime>  (461) 
4.194864

$$$$
C727-P310
     RDKit          3D

 12 13  0  0  0  0  0  0  0  0999 V2000
    7.3358   12.0245   25.3821 C   0  0  0  0  0  0  0  0  0  0  0  0
    7.9966   12.9920   24.6340 C   0  0  0  0  0  0  0  0  0  0  0  0
    9.0384   12.5983   23.8024 C   0  0  0  0  0  0  0  0  0  0  0  0
    9.8137   13.4861   23.0495 N   0  0  0  0  0  0  0  0  0  0  0  0
   10.9837   13.9786   23.7912 C   0  0  0  0  0  0  0  0  0  0  0  0
   11.9988   14.5425   22.8029 C   0  0  0  0  0  0  0  0  0  0  0  0
   11.3868   15.6215   21.9180 C   0  0  0  0  0  0  0  0  0  0  0  0
   10.1064   15.1191   21.2534 C   0  0  0  0  0  0  0  0  0  0  0  0
    9.1292   14.5393   22.2828 C   0  0  0  0  0  0  0  0  0  0  0  0
    9.3400   11.2339   23.7484 C   0  0  0  0  0  0  0  0  0  0  0  0
    8.6257   10.3373   24.5274 C   0  0  0  0  0  0  0  0  0  0  0  0
    7.6380   10.7061   25.3678 N   0  0  0  0  0  0  0  0  0  0  0  0
  1  2  2  0
  2  3  1  0
  3  4  1  0
  4  5  1  0
  5  6  1  0
  6  7  1  0
  7  8  1  0
  8  9  1  0
  3 10  2  0
 10 11  1  0
 11 12  2  0
 12  1  1  0
  9  4  1  0
M  END
>  <ref_pdb>  (462) 
A4333a

>  <subsites>  (462) 
1 - Active Site

>  <HIPPO Compound ID>  (462) 
6108

>  <energy_score>  (462) 
-16.501092

>  <fragmenstein_mode>  (462) 
expansion

>  <scratch_subdir>  (462) 
/opt/xchem-fragalysis-2/maxwin/BulkDock/SCRATCH/512192/C727-P310

>  <smiles>  (462) 
c1cc(N2CCCCC2)ccn1

>  <alias>  (462) 
C727-P310

>  <ref_mols>  (462) 
A3623a,A4333a

>  <inspiration_score>  (462) 
None

>  <tags>  (462) 
BulkDock Fragalysis export,fragmenstein_placed,openbind_a71ev2a_c1_knitwork_impure,openbind_a71ev2a_c1_scaffolds

>  <fragmenstein_outcome>  (462) 
acceptable

>  <fragmenstein_error>  (462) 


>  <distance_score>  (462) 
0.91253

>  <inchikey>  (462) 
SBOGVGGESDHHSA-UHFFFAOYSA-N

>  <name>  (462) 
C727-P310

>  <HIPPO Pose ID>  (462) 
332406

>  <Energy>  (462) 
13.862766

>  <exports>  (462) 
['/opt/xchem-fragalysis-2/maxwin/BulkDock/OUTPUTS/openbind_a71ev2a_c1_knitwork_impure_165VXJF.sdf', '/opt/xchem-fragalysis-2/maxwin/BulkDock/OUTPUTS/openbind_a71ev2a_c1_knitwork_impure_1B07QS4.sdf', '/opt/xchem-fragalysis-2/maxwin/BulkDock/OUTPUTS/openbind_a71ev2a_c1_knitwork_impure_1B07X5R.sdf', '/opt/xchem-fragalysis-2/maxwin/openbind-hippo/a71ev2a/openbind_a71ev2a_c1_scaffold_products.sdf', '/opt/xchem-fragalysis-2/maxwin/openbind-hippo/a71ev2a/cycle_01/bulkdock/openbind_a71ev2a_c1_scaffold_products.sdf', '/opt/xchem-fragalysis-2/maxwin/openbind-hippo/a71ev2a/cycle_01/bulkdock/openbind_a71ev2a_c1_scaffolds.sdf']

>  <fragmenstein_runtime>  (462) 
3.448263

$$$$
C2414-P197
     RDKit          3D

 16 16  0  0  0  0  0  0  0  0999 V2000
    6.5092    9.9602   25.9469 C   0  0  0  0  0  0  0  0  0  0  0  0
    7.2428   10.7701   25.4516 C   0  0  0  0  0  0  0  0  0  0  0  0
    8.0654   11.8625   24.9170 C   0  0  0  0  0  0  0  0  0  0  0  0
    7.5925   13.1609   25.5475 C   0  0  0  0  0  0  0  0  0  0  0  0
    8.5262   14.3194   25.2763 C   0  0  0  0  0  0  0  0  0  0  0  0
    9.3768   14.5691   26.1451 O   0  0  0  0  0  0  0  0  0  0  0  0
    8.3562   15.1981   23.9780 C   0  0  1  0  0  0  0  0  0  0  0  0
    7.0522   14.7726   23.2652 C   0  0  0  0  0  0  0  0  0  0  0  0
    8.1854   16.6533   24.5279 C   0  0  0  0  0  0  0  0  0  0  0  0
    7.3058   17.6021   23.7242 C   0  0  0  0  0  0  0  0  0  0  0  0
    9.5190   14.9664   23.0436 N   0  0  0  0  0  0  0  0  0  0  0  0
   10.8499   15.1437   23.6670 C   0  0  0  0  0  0  0  0  0  0  0  0
   12.0019   14.8084   22.7134 C   0  0  0  0  0  0  0  0  0  0  0  0
   11.9339   15.6149   21.4287 C   0  0  0  0  0  0  0  0  0  0  0  0
   10.5565   15.4686   20.8097 C   0  0  0  0  0  0  0  0  0  0  0  0
    9.4634   15.8117   21.8222 C   0  0  0  0  0  0  0  0  0  0  0  0
  1  2  3  0
  2  3  1  0
  3  4  1  0
  4  5  1  0
  5  6  2  0
  5  7  1  0
  7  8  1  6
  7  9  1  0
  9 10  1  0
  7 11  1  0
 11 12  1  0
 12 13  1  0
 13 14  1  0
 14 15  1  0
 15 16  1  0
 16 11  1  0
M  END
>  <ref_pdb>  (463) 
A3616b

>  <subsites>  (463) 
1 - Active Site

>  <HIPPO Compound ID>  (463) 
32227

>  <energy_score>  (463) 
-37.076828

>  <fragmenstein_mode>  (463) 
expansion

>  <scratch_subdir>  (463) 
/opt/xchem-fragalysis-2/maxwin/BulkDock/SCRATCH/512192/C2414-P197

>  <smiles>  (463) 
C#CCCC(=O)[C@@](C)(CC)N1CCCCC1

>  <alias>  (463) 
C2414-P197

>  <ref_mols>  (463) 
A1779a,A3616b

>  <inspiration_score>  (463) 
None

>  <tags>  (463) 
BulkDock Fragalysis export,fragmenstein_placed,openbind_a71ev2a_c1_knitwork_impure,openbind_a71ev2a_c1_scaffolds

>  <fragmenstein_outcome>  (463) 
acceptable

>  <fragmenstein_error>  (463) 


>  <distance_score>  (463) 
0.810794

>  <inchikey>  (463) 
AIHZEWPQJWAUAF-UHFFFAOYSA-N

>  <name>  (463) 
C2414-P197

>  <HIPPO Pose ID>  (463) 
332682

>  <Energy>  (463) 
52.581799

>  <exports>  (463) 
['/opt/xchem-fragalysis-2/maxwin/BulkDock/OUTPUTS/openbind_a71ev2a_c1_knitwork_impure_165VXJF.sdf', '/opt/xchem-fragalysis-2/maxwin/BulkDock/OUTPUTS/openbind_a71ev2a_c1_knitwork_impure_1B07QS4.sdf', '/opt/xchem-fragalysis-2/maxwin/BulkDock/OUTPUTS/openbind_a71ev2a_c1_knitwork_impure_1B07X5R.sdf', '/opt/xchem-fragalysis-2/maxwin/openbind-hippo/a71ev2a/openbind_a71ev2a_c1_scaffold_products.sdf', '/opt/xchem-fragalysis-2/maxwin/openbind-hippo/a71ev2a/cycle_01/bulkdock/openbind_a71ev2a_c1_scaffold_products.sdf', '/opt/xchem-fragalysis-2/maxwin/openbind-hippo/a71ev2a/cycle_01/bulkdock/openbind_a71ev2a_c1_scaffolds.sdf']

>  <fragmenstein_runtime>  (463) 
2.058601

$$$$
C2408-P323
     RDKit          3D

 15 15  0  0  0  0  0  0  0  0999 V2000
    8.7570    9.8198   23.8399 C   0  0  0  0  0  0  0  0  0  0  0  0
    8.9115   11.3302   23.7564 C   0  0  0  0  0  0  0  0  0  0  0  0
    8.3512   12.0913   24.9489 C   0  0  2  0  0  0  0  0  0  0  0  0
    6.8940   11.8363   25.2755 C   0  0  0  0  0  0  0  0  0  0  0  0
    8.6919   13.5800   24.9758 C   0  0  0  0  0  0  0  0  0  0  0  0
    9.2359   13.9968   26.0137 O   0  0  0  0  0  0  0  0  0  0  0  0
    8.3724   14.5640   23.7897 C   0  0  0  0  0  0  0  0  0  0  0  0
    7.0938   14.1582   23.0347 C   0  0  0  0  0  0  0  0  0  0  0  0
    8.0461   15.9361   24.4450 C   0  0  0  0  0  0  0  0  0  0  0  0
    9.5468   14.6206   22.8603 N   0  0  0  0  0  0  0  0  0  0  0  0
   10.7951   15.0338   23.5314 C   0  0  0  0  0  0  0  0  0  0  0  0
   11.9910   14.9341   22.5935 C   0  0  0  0  0  0  0  0  0  0  0  0
   11.8062   15.8042   21.3644 C   0  0  0  0  0  0  0  0  0  0  0  0
   10.4970   15.4496   20.6833 C   0  0  0  0  0  0  0  0  0  0  0  0
    9.3240   15.4730   21.6665 C   0  0  0  0  0  0  0  0  0  0  0  0
  1  2  1  0
  2  3  1  0
  3  4  1  6
  3  5  1  0
  5  6  2  0
  5  7  1  0
  7  8  1  0
  7  9  1  0
  7 10  1  0
 10 11  1  0
 11 12  1  0
 12 13  1  0
 13 14  1  0
 14 15  1  0
 15 10  1  0
M  END
>  <ref_pdb>  (464) 
A4365a

>  <subsites>  (464) 
1 - Active Site

>  <HIPPO Compound ID>  (464) 
31798

>  <energy_score>  (464) 
-46.325796

>  <fragmenstein_mode>  (464) 
expansion

>  <scratch_subdir>  (464) 
/opt/xchem-fragalysis-2/maxwin/BulkDock/SCRATCH/512192/C2408-P323

>  <smiles>  (464) 
CC[C@H](C)C(=O)C(C)(C)N1CCCCC1

>  <alias>  (464) 
C2408-P323

>  <ref_mols>  (464) 
A4365a,A1779a

>  <inspiration_score>  (464) 
None

>  <tags>  (464) 
BulkDock Fragalysis export,fragmenstein_placed,openbind_a71ev2a_c1_knitwork_impure,openbind_a71ev2a_c1_scaffolds

>  <fragmenstein_outcome>  (464) 
acceptable

>  <fragmenstein_error>  (464) 


>  <distance_score>  (464) 
0.856136

>  <inchikey>  (464) 
AYUAFHQJYXDAKG-UHFFFAOYSA-N

>  <name>  (464) 
C2408-P323

>  <HIPPO Pose ID>  (464) 
333980

>  <Energy>  (464) 
54.530814

>  <exports>  (464) 
['/opt/xchem-fragalysis-2/maxwin/BulkDock/OUTPUTS/openbind_a71ev2a_c1_knitwork_impure_165VXJF.sdf', '/opt/xchem-fragalysis-2/maxwin/BulkDock/OUTPUTS/openbind_a71ev2a_c1_knitwork_impure_1B07QS4.sdf', '/opt/xchem-fragalysis-2/maxwin/BulkDock/OUTPUTS/openbind_a71ev2a_c1_knitwork_impure_1B07X5R.sdf', '/opt/xchem-fragalysis-2/maxwin/openbind-hippo/a71ev2a/openbind_a71ev2a_c1_scaffold_products.sdf', '/opt/xchem-fragalysis-2/maxwin/openbind-hippo/a71ev2a/cycle_01/bulkdock/openbind_a71ev2a_c1_scaffold_products.sdf', '/opt/xchem-fragalysis-2/maxwin/openbind-hippo/a71ev2a/cycle_01/bulkdock/openbind_a71ev2a_c1_scaffolds.sdf']

>  <fragmenstein_runtime>  (464) 
9.540371

$$$$
C9370-P564
     RDKit          3D

 15 15  0  0  0  0  0  0  0  0999 V2000
   10.1148   15.8606   19.5310 C   0  0  0  0  0  0  0  0  0  0  0  0
    9.5300   14.9667   20.6094 C   0  0  0  0  0  0  0  0  0  0  0  0
    9.6893   15.5300   21.9055 O   0  0  0  0  0  0  0  0  0  0  0  0
   10.2216   14.4928   22.7955 N   0  0  0  0  0  0  0  0  0  0  0  0
   11.5568   14.9681   23.1520 C   0  0  0  0  0  0  0  0  0  0  0  0
   12.3651   15.4804   21.9747 C   0  0  0  0  0  0  0  0  0  0  0  0
    9.1649   14.0480   24.0660 S   0  0  2  0  0  0  0  0  0  0  0  0
    7.9173   14.8888   23.8716 N   0  0  0  0  0  0  0  0  0  0  0  0
    9.9902   13.9698   25.2505 O   0  0  0  0  0  0  0  0  0  0  0  0
    8.6288   12.4833   23.7882 N   0  0  0  0  0  0  0  0  0  0  0  0
    7.4557   11.9736   24.4916 C   0  0  0  0  0  0  0  0  0  0  0  0
    7.7211   10.5141   24.8000 C   0  0  0  0  0  0  0  0  0  0  0  0
    8.8200   10.1136   23.8462 C   0  0  0  0  0  0  0  0  0  0  0  0
    9.5735   11.3999   23.5886 C   0  0  0  0  0  0  0  0  0  0  0  0
    8.0516   15.5049   23.0687 H   0  0  0  0  0  0  0  0  0  0  0  0
  1  2  1  0
  2  3  1  0
  3  4  1  0
  4  5  1  0
  5  6  1  0
  7  4  1  6
  7  8  2  0
  7  9  2  0
  7 10  1  0
 10 11  1  0
 11 12  1  0
 12 13  1  0
 13 14  1  0
 14 10  1  0
  8 15  1  0
M  END
>  <ref_pdb>  (465) 
A5091a

>  <subsites>  (465) 
1 - Active Site

>  <HIPPO Compound ID>  (465) 
41442

>  <energy_score>  (465) 
-59.809862

>  <fragmenstein_mode>  (465) 
expansion

>  <scratch_subdir>  (465) 
/opt/xchem-fragalysis-2/maxwin/BulkDock/SCRATCH/512192/C9370-P564

>  <smiles>  (465) 
[H]N=[S@@](=O)(N1CCCC1)N(CC)OCC

>  <alias>  (465) 
C9370-P564

>  <ref_mols>  (465) 
A5091a,A0719a

>  <inspiration_score>  (465) 
None

>  <tags>  (465) 
BulkDock Fragalysis export,fragmenstein_placed,openbind_a71ev2a_c1_knitwork_impure,openbind_a71ev2a_c1_scaffolds

>  <fragmenstein_outcome>  (465) 
acceptable

>  <fragmenstein_error>  (465) 


>  <distance_score>  (465) 
0.969644

>  <inchikey>  (465) 
MXKVMTZMLDJXBU-UHFFFAOYSA-N

>  <name>  (465) 
C9370-P564

>  <HIPPO Pose ID>  (465) 
334993

>  <Energy>  (465) 
-125.862091

>  <exports>  (465) 
['/opt/xchem-fragalysis-2/maxwin/BulkDock/OUTPUTS/openbind_a71ev2a_c1_knitwork_impure_165VXJF.sdf', '/opt/xchem-fragalysis-2/maxwin/BulkDock/OUTPUTS/openbind_a71ev2a_c1_knitwork_impure_1B07QS4.sdf', '/opt/xchem-fragalysis-2/maxwin/BulkDock/OUTPUTS/openbind_a71ev2a_c1_knitwork_impure_1B07X5R.sdf', '/opt/xchem-fragalysis-2/maxwin/openbind-hippo/a71ev2a/openbind_a71ev2a_c1_scaffold_products.sdf', '/opt/xchem-fragalysis-2/maxwin/openbind-hippo/a71ev2a/cycle_01/bulkdock/openbind_a71ev2a_c1_scaffold_products.sdf', '/opt/xchem-fragalysis-2/maxwin/openbind-hippo/a71ev2a/cycle_01/bulkdock/openbind_a71ev2a_c1_scaffolds.sdf']

>  <fragmenstein_runtime>  (465) 
6.093452

$$$$
C9388-P77
     RDKit          3D

 17 17  0  0  0  0  0  0  0  0999 V2000
   12.1023   14.4708   22.9123 C   0  0  0  0  0  0  0  0  0  0  0  0
   10.6872   14.9915   22.7277 C   0  0  1  0  0  0  0  0  0  0  0  0
   10.1757   14.7488   21.3087 C   0  0  0  0  0  0  0  0  0  0  0  0
   11.2518   15.1715   20.2998 C   0  0  0  0  0  0  0  0  0  0  0  0
   10.8385   15.1842   18.8557 C   0  0  0  0  0  0  0  0  0  0  0  0
   10.6373   13.9255   18.4337 F   0  0  0  0  0  0  0  0  0  0  0  0
    9.7464   15.9392   18.6768 F   0  0  0  0  0  0  0  0  0  0  0  0
   11.8473   15.6606   18.1016 F   0  0  0  0  0  0  0  0  0  0  0  0
    9.9669   14.3608   23.8197 N   0  0  0  0  0  0  0  0  0  0  0  0
    8.3461   14.1614   23.9737 S   0  0  0  0  0  0  0  0  0  0  0  0
    7.6952   13.9256   22.7136 O   0  0  0  0  0  0  0  0  0  0  0  0
    7.9018   15.1204   24.9531 O   0  0  0  0  0  0  0  0  0  0  0  0
    8.5128   12.6815   24.7632 N   0  0  0  0  0  0  0  0  0  0  0  0
    7.2531   12.0960   25.2268 C   0  0  0  0  0  0  0  0  0  0  0  0
    7.5825   10.6334   25.4135 C   0  0  0  0  0  0  0  0  0  0  0  0
    8.6724   10.3203   24.4112 C   0  0  0  0  0  0  0  0  0  0  0  0
    9.2695   11.6483   24.0145 C   0  0  0  0  0  0  0  0  0  0  0  0
  2  1  1  6
  2  3  1  0
  3  4  1  0
  4  5  1  0
  5  6  1  0
  5  7  1  0
  5  8  1  0
  2  9  1  0
  9 10  1  0
 10 11  2  0
 10 12  2  0
 10 13  1  0
 13 14  1  0
 14 15  1  0
 15 16  1  0
 16 17  1  0
 17 13  1  0
M  END
>  <ref_pdb>  (466) 
A0719a

>  <subsites>  (466) 
1 - Active Site

>  <HIPPO Compound ID>  (466) 
6060

>  <energy_score>  (466) 
-19.20784

>  <fragmenstein_mode>  (466) 
expansion

>  <scratch_subdir>  (466) 
/opt/xchem-fragalysis-2/maxwin/BulkDock/SCRATCH/512192/C9388-P77

>  <smiles>  (466) 
C[C@@H](CCC(F)(F)F)NS(=O)(=O)N1CCCC1

>  <alias>  (466) 
C9388-P77

>  <ref_mols>  (466) 
A5091a,A0719a

>  <inspiration_score>  (466) 
None

>  <tags>  (466) 
BulkDock Fragalysis export,fragmenstein_placed,openbind_a71ev2a_c1_knitwork_impure,openbind_a71ev2a_c1_scaffolds

>  <fragmenstein_outcome>  (466) 
acceptable

>  <fragmenstein_error>  (466) 


>  <distance_score>  (466) 
0.8806

>  <inchikey>  (466) 
CBBQZDXGIJWOCE-UHFFFAOYSA-N

>  <name>  (466) 
C9388-P77

>  <HIPPO Pose ID>  (466) 
335020

>  <Energy>  (466) 
-162.474756

>  <exports>  (466) 
['/opt/xchem-fragalysis-2/maxwin/BulkDock/OUTPUTS/openbind_a71ev2a_c1_knitwork_impure_165VXJF.sdf', '/opt/xchem-fragalysis-2/maxwin/BulkDock/OUTPUTS/openbind_a71ev2a_c1_knitwork_impure_1B07QS4.sdf', '/opt/xchem-fragalysis-2/maxwin/BulkDock/OUTPUTS/openbind_a71ev2a_c1_knitwork_impure_1B07X5R.sdf', '/opt/xchem-fragalysis-2/maxwin/openbind-hippo/a71ev2a/openbind_a71ev2a_c1_scaffold_products.sdf', '/opt/xchem-fragalysis-2/maxwin/openbind-hippo/a71ev2a/cycle_01/bulkdock/openbind_a71ev2a_c1_scaffold_products.sdf', '/opt/xchem-fragalysis-2/maxwin/openbind-hippo/a71ev2a/cycle_01/bulkdock/openbind_a71ev2a_c1_scaffolds.sdf']

>  <fragmenstein_runtime>  (466) 
25.498854

$$$$
C18204-P412
     RDKit          3D

 14 14  0  0  0  0  0  0  0  0999 V2000
    8.4431    9.9324   25.0992 C   0  0  0  0  0  0  0  0  0  0  0  0
    9.3883   10.6879   24.1816 C   0  0  0  0  0  0  0  0  0  0  0  0
   10.6374   11.1528   24.9163 C   0  0  0  0  0  0  0  0  0  0  0  0
    9.7420    9.6944   23.0745 C   0  0  0  0  0  0  0  0  0  0  0  0
    8.7667   11.9825   23.6468 C   0  0  0  0  0  0  0  0  0  0  0  0
    8.0660   12.8440   24.6840 C   0  0  0  0  0  0  0  0  0  0  0  0
    7.9527   12.4886   25.8591 O   0  0  0  0  0  0  0  0  0  0  0  0
    7.3872   14.1285   24.2716 C   0  0  0  0  0  0  0  0  0  0  0  0
    7.7366   14.7000   22.9106 C   0  0  0  0  0  0  0  0  0  0  0  0
    9.1309   15.0195   22.6867 N   0  0  0  0  0  0  0  0  0  0  0  0
   10.0826   15.3934   23.5915 C   0  0  0  0  0  0  0  0  0  0  0  0
   11.2677   15.4371   22.8934 C   0  0  0  0  0  0  0  0  0  0  0  0
   10.9194   15.1224   21.5690 C   0  0  0  0  0  0  0  0  0  0  0  0
    9.6176   14.8510   21.4468 N   0  0  0  0  0  0  0  0  0  0  0  0
  1  2  1  0
  2  3  1  0
  2  4  1  0
  2  5  1  0
  5  6  1  0
  6  7  2  0
  6  8  1  0
  8  9  1  0
  9 10  1  0
 10 11  1  0
 11 12  2  0
 12 13  1  0
 13 14  2  0
 14 10  1  0
M  END
>  <ref_pdb>  (467) 
A4586a

>  <subsites>  (467) 
1 - Active Site

>  <HIPPO Compound ID>  (467) 
7599

>  <energy_score>  (467) 
-21.822723

>  <fragmenstein_mode>  (467) 
expansion

>  <scratch_subdir>  (467) 
/opt/xchem-fragalysis-2/maxwin/BulkDock/SCRATCH/512192/C18204-P412

>  <smiles>  (467) 
CC(C)(C)CC(=O)CCn1cccn1

>  <alias>  (467) 
C18204-P412

>  <ref_mols>  (467) 
A4586a,A0556a

>  <inspiration_score>  (467) 
None

>  <tags>  (467) 
BulkDock Fragalysis export,fragmenstein_placed,openbind_a71ev2a_c1_knitwork_impure,openbind_a71ev2a_c1_scaffolds

>  <fragmenstein_outcome>  (467) 
acceptable

>  <fragmenstein_error>  (467) 


>  <distance_score>  (467) 
0.987167

>  <inchikey>  (467) 
UXAXKRNZNZXPTI-UHFFFAOYSA-N

>  <name>  (467) 
C18204-P412

>  <HIPPO Pose ID>  (467) 
336919

>  <Energy>  (467) 
21.937923

>  <exports>  (467) 
['/opt/xchem-fragalysis-2/maxwin/BulkDock/OUTPUTS/openbind_a71ev2a_c1_knitwork_impure_165VXJF.sdf', '/opt/xchem-fragalysis-2/maxwin/BulkDock/OUTPUTS/openbind_a71ev2a_c1_knitwork_impure_1B07QS4.sdf', '/opt/xchem-fragalysis-2/maxwin/BulkDock/OUTPUTS/openbind_a71ev2a_c1_knitwork_impure_1B07X5R.sdf', '/opt/xchem-fragalysis-2/maxwin/openbind-hippo/a71ev2a/openbind_a71ev2a_c1_scaffold_products.sdf', '/opt/xchem-fragalysis-2/maxwin/openbind-hippo/a71ev2a/cycle_01/bulkdock/openbind_a71ev2a_c1_scaffold_products.sdf', '/opt/xchem-fragalysis-2/maxwin/openbind-hippo/a71ev2a/cycle_01/bulkdock/openbind_a71ev2a_c1_scaffolds.sdf']

>  <fragmenstein_runtime>  (467) 
6.305032

$$$$
C8155-P328
     RDKit          3D

 16 16  0  0  0  0  0  0  0  0999 V2000
    8.2457   10.2305   24.8859 C   0  0  0  0  0  0  0  0  0  0  0  0
    6.8963    9.8307   25.3595 C   0  0  0  0  0  0  0  0  0  0  0  0
    6.0078   10.4434   26.1533 C   0  0  0  0  0  0  0  0  0  0  0  0
    6.0676   11.7327   26.7895 C   0  0  0  0  0  0  0  0  0  0  0  0
    6.4040   12.9080   26.2433 C   0  0  0  0  0  0  0  0  0  0  0  0
    6.7678   13.1539   24.8237 C   0  0  0  0  0  0  0  0  0  0  0  0
    8.1825   13.5283   24.7896 N   0  0  0  0  0  0  0  0  0  0  0  0
    8.8718   13.3812   23.2692 S   0  0  0  0  0  0  0  0  0  0  0  0
    7.7946   13.1858   22.3277 O   0  0  0  0  0  0  0  0  0  0  0  0
    9.9471   12.4331   23.4451 O   0  0  0  0  0  0  0  0  0  0  0  0
    9.4691   14.9317   23.1270 N   0  0  0  0  0  0  0  0  0  0  0  0
   10.7371   15.2577   23.7944 C   0  0  0  0  0  0  0  0  0  0  0  0
   11.9096   14.9709   22.8662 C   0  0  0  0  0  0  0  0  0  0  0  0
   11.7650   15.7149   21.5420 C   0  0  0  0  0  0  0  0  0  0  0  0
   10.4270   15.3853   20.8885 C   0  0  0  0  0  0  0  0  0  0  0  0
    9.2727   15.6531   21.8445 C   0  0  0  0  0  0  0  0  0  0  0  0
  1  2  1  0
  2  3  2  3
  3  4  1  0
  4  5  2  3
  5  6  1  0
  6  7  1  0
  7  8  1  0
  8  9  2  0
  8 10  2  0
  8 11  1  0
 11 12  1  0
 12 13  1  0
 13 14  1  0
 14 15  1  0
 15 16  1  0
 16 11  1  0
M  END
>  <ref_pdb>  (468) 
A4374a

>  <subsites>  (468) 
1 - Active Site

>  <HIPPO Compound ID>  (468) 
8470

>  <energy_score>  (468) 
-52.932324

>  <fragmenstein_mode>  (468) 
expansion

>  <scratch_subdir>  (468) 
/opt/xchem-fragalysis-2/maxwin/BulkDock/SCRATCH/512192/C8155-P328

>  <smiles>  (468) 
CC=CC=CCNS(=O)(=O)N1CCCCC1

>  <alias>  (468) 
C8155-P328

>  <ref_mols>  (468) 
A4374a,A0719a

>  <inspiration_score>  (468) 
None

>  <tags>  (468) 
BulkDock Fragalysis export,fragmenstein_placed,openbind_a71ev2a_c1_knitwork_impure,openbind_a71ev2a_c1_scaffolds

>  <fragmenstein_outcome>  (468) 
acceptable

>  <fragmenstein_error>  (468) 


>  <distance_score>  (468) 
0.909612

>  <inchikey>  (468) 
XMYOBLGSEFSZPI-UHFFFAOYSA-N

>  <name>  (468) 
C8155-P328

>  <HIPPO Pose ID>  (468) 
336962

>  <Energy>  (468) 
-186.941114

>  <exports>  (468) 
['/opt/xchem-fragalysis-2/maxwin/BulkDock/OUTPUTS/openbind_a71ev2a_c1_knitwork_impure_165VXJF.sdf', '/opt/xchem-fragalysis-2/maxwin/BulkDock/OUTPUTS/openbind_a71ev2a_c1_knitwork_impure_1B07QS4.sdf', '/opt/xchem-fragalysis-2/maxwin/BulkDock/OUTPUTS/openbind_a71ev2a_c1_knitwork_impure_1B07X5R.sdf', '/opt/xchem-fragalysis-2/maxwin/openbind-hippo/a71ev2a/openbind_a71ev2a_c1_scaffold_products.sdf', '/opt/xchem-fragalysis-2/maxwin/openbind-hippo/a71ev2a/cycle_01/bulkdock/openbind_a71ev2a_c1_scaffold_products.sdf', '/opt/xchem-fragalysis-2/maxwin/openbind-hippo/a71ev2a/cycle_01/bulkdock/openbind_a71ev2a_c1_scaffolds.sdf']

>  <fragmenstein_runtime>  (468) 
2.711035

$$$$
C4703-P122
     RDKit          3D

 11 11  0  0  0  0  0  0  0  0999 V2000
   12.0903   10.6329   22.1073 C   0  0  0  0  0  0  0  0  0  0  0  0
   11.3453   10.7587   23.2088 C   0  0  0  0  0  0  0  0  0  0  0  0
   11.2250   12.0415   23.9765 C   0  0  0  0  0  0  0  0  0  0  0  0
    9.7756   12.3202   24.3914 C   0  0  0  0  0  0  0  0  0  0  0  0
    9.1260   11.1938   25.1232 N   0  0  0  0  0  0  0  0  0  0  0  0
    7.6979   11.5402   25.3969 C   0  0  1  0  0  0  0  0  0  0  0  0
    6.8180   10.4567   25.9960 C   0  0  0  0  0  0  0  0  0  0  0  0
    7.6065   12.6063   26.4565 C   0  0  0  0  0  0  0  0  0  0  0  0
    6.5428   13.1322   26.7779 O   0  0  0  0  0  0  0  0  0  0  0  0
    9.2294    9.9836   24.2719 C   0  0  0  0  0  0  0  0  0  0  0  0
   10.6173    9.5887   23.7741 C   0  0  0  0  0  0  0  0  0  0  0  0
  1  2  2  0
  2  3  1  0
  3  4  1  0
  4  5  1  0
  5  6  1  0
  6  7  1  1
  6  8  1  0
  8  9  2  0
  5 10  1  0
 10 11  1  0
 11  2  1  0
M  END
>  <ref_pdb>  (469) 
A1775a

>  <subsites>  (469) 
1 - Active Site

>  <HIPPO Compound ID>  (469) 
8912

>  <energy_score>  (469) 
-34.900194

>  <fragmenstein_mode>  (469) 
expansion

>  <scratch_subdir>  (469) 
/opt/xchem-fragalysis-2/maxwin/BulkDock/SCRATCH/512192/C4703-P122

>  <smiles>  (469) 
C=C1CCN([C@@H](C)C=O)CC1

>  <alias>  (469) 
C4703-P122

>  <ref_mols>  (469) 
A4877b,A1775a

>  <inspiration_score>  (469) 
None

>  <tags>  (469) 
BulkDock Fragalysis export,fragmenstein_placed,openbind_a71ev2a_c1_knitwork_impure,openbind_a71ev2a_c1_scaffolds

>  <fragmenstein_outcome>  (469) 
acceptable

>  <fragmenstein_error>  (469) 


>  <distance_score>  (469) 
0.91435

>  <inchikey>  (469) 
QLWADYUBFZPSNX-UHFFFAOYSA-N

>  <name>  (469) 
C4703-P122

>  <HIPPO Pose ID>  (469) 
337305

>  <Energy>  (469) 
81.192028

>  <exports>  (469) 
['/opt/xchem-fragalysis-2/maxwin/BulkDock/OUTPUTS/openbind_a71ev2a_c1_knitwork_impure_165VXJF.sdf', '/opt/xchem-fragalysis-2/maxwin/BulkDock/OUTPUTS/openbind_a71ev2a_c1_knitwork_impure_1B07QS4.sdf', '/opt/xchem-fragalysis-2/maxwin/BulkDock/OUTPUTS/openbind_a71ev2a_c1_knitwork_impure_1B07X5R.sdf', '/opt/xchem-fragalysis-2/maxwin/openbind-hippo/a71ev2a/openbind_a71ev2a_c1_scaffold_products.sdf', '/opt/xchem-fragalysis-2/maxwin/openbind-hippo/a71ev2a/cycle_01/bulkdock/openbind_a71ev2a_c1_scaffold_products.sdf', '/opt/xchem-fragalysis-2/maxwin/openbind-hippo/a71ev2a/cycle_01/bulkdock/openbind_a71ev2a_c1_scaffolds.sdf']

>  <fragmenstein_runtime>  (469) 
2.612592

$$$$
C11373-P9
     RDKit          3D

 19 21  0  0  0  0  0  0  0  0999 V2000
   22.6809   13.7121    1.4635 C   0  0  0  0  0  0  0  0  0  0  0  0
   22.0106   14.1454    2.7519 C   0  0  0  0  0  0  0  0  0  0  0  0
   20.5873   14.3868    2.5872 N   0  0  0  0  0  0  0  0  0  0  0  0
   19.6966   13.3908    2.8242 N   0  0  0  0  0  0  0  0  0  0  0  0
   18.5128   13.9837    2.6573 C   0  0  0  0  0  0  0  0  0  0  0  0
   18.6265   15.3438    2.3009 C   0  0  0  0  0  0  0  0  0  0  0  0
   17.7342   16.3920    2.0228 C   0  0  0  0  0  0  0  0  0  0  0  0
   18.2527   17.6518    1.6914 C   0  0  0  0  0  0  0  0  0  0  0  0
   19.6308   17.8724    1.6398 C   0  0  0  0  0  0  0  0  0  0  0  0
   20.0832   19.1458    1.3035 N   0  0  0  0  0  0  0  0  0  0  0  0
   21.5286   19.7025    1.1767 C   0  0  0  0  0  0  0  0  0  0  0  0
   22.5625   19.1568    1.2598 O   0  0  0  0  0  0  0  0  0  0  0  0
   21.4463   21.2364    0.8648 C   0  0  0  0  0  0  0  0  0  0  0  0
   22.4197   22.1567    1.6686 C   0  0  0  0  0  0  0  0  0  0  0  0
   22.7160   22.8634    0.3343 C   0  0  0  0  0  0  0  0  0  0  0  0
   23.1970   23.9344    0.0353 O   0  0  0  0  0  0  0  0  0  0  0  0
   22.1101   21.6997   -0.4698 C   0  0  0  0  0  0  0  0  0  0  0  0
   20.5298   16.8390    1.9195 C   0  0  0  0  0  0  0  0  0  0  0  0
   19.9957   15.5826    2.2473 C   0  0  0  0  0  0  0  0  0  0  0  0
  1  2  1  0
  2  3  1  0
  3  4  1  0
  4  5  2  0
  5  6  1  0
  6  7  2  0
  7  8  1  0
  8  9  2  0
  9 10  1  0
 10 11  1  0
 11 12  2  0
 11 13  1  0
 13 14  1  0
 14 15  1  0
 15 16  2  0
 15 17  1  0
  9 18  1  0
 18 19  2  0
 19  3  1  0
 19  6  1  0
 17 13  1  0
M  END
>  <ref_pdb>  (470) 
A0486a

>  <subsites>  (470) 
1 - Active Site,6 - A0486/A/147/1

>  <HIPPO Compound ID>  (470) 
525

>  <energy_score>  (470) 
-38.732086

>  <fragmenstein_mode>  (470) 
expansion

>  <scratch_subdir>  (470) 
/opt/xchem-fragalysis-2/maxwin/BulkDock/SCRATCH/512192/C11373-P9

>  <smiles>  (470) 
CCn1ncc2ccc(NC(=O)C3CC(=O)C3)cc21

>  <alias>  (470) 
C11373-P9

>  <ref_mols>  (470) 
A0486a,A0528a

>  <inspiration_score>  (470) 
None

>  <tags>  (470) 
BulkDock Fragalysis export,fragmenstein_placed,openbind_a71ev2a_c1_knitwork_impure,openbind_a71ev2a_c1_scaffolds

>  <fragmenstein_outcome>  (470) 
acceptable

>  <fragmenstein_error>  (470) 


>  <distance_score>  (470) 
0.429145

>  <inchikey>  (470) 
JORZCDFDZUSFGH-UHFFFAOYSA-N

>  <name>  (470) 
C11373-P9

>  <HIPPO Pose ID>  (470) 
337480

>  <Energy>  (470) 
16.662379

>  <exports>  (470) 
['/opt/xchem-fragalysis-2/maxwin/BulkDock/OUTPUTS/openbind_a71ev2a_c1_knitwork_impure_165VXJF.sdf', '/opt/xchem-fragalysis-2/maxwin/BulkDock/OUTPUTS/openbind_a71ev2a_c1_knitwork_impure_1B07QS4.sdf', '/opt/xchem-fragalysis-2/maxwin/BulkDock/OUTPUTS/openbind_a71ev2a_c1_knitwork_impure_1B07X5R.sdf', '/opt/xchem-fragalysis-2/maxwin/openbind-hippo/a71ev2a/openbind_a71ev2a_c1_scaffold_products.sdf', '/opt/xchem-fragalysis-2/maxwin/openbind-hippo/a71ev2a/cycle_01/bulkdock/openbind_a71ev2a_c1_scaffold_products.sdf', '/opt/xchem-fragalysis-2/maxwin/openbind-hippo/a71ev2a/cycle_01/bulkdock/openbind_a71ev2a_c1_scaffolds.sdf']

>  <fragmenstein_runtime>  (470) 
4.908596

$$$$
C4790-P187
     RDKit          3D

 10 11  0  0  0  0  0  0  0  0999 V2000
    8.1101   13.8902   24.7403 C   0  0  0  0  0  0  0  0  0  0  0  0
    7.4832   12.7815   25.1498 C   0  0  0  0  0  0  0  0  0  0  0  0
    7.7642   11.4301   24.8477 C   0  0  0  0  0  0  0  0  0  0  0  0
    7.1266   10.2766   25.3422 C   0  0  0  0  0  0  0  0  0  0  0  0
    7.6396    9.1542   24.8432 N   0  0  0  0  0  0  0  0  0  0  0  0
    8.6185    9.5842   24.0223 N   0  0  0  0  0  0  0  0  0  0  0  0
    8.7281   10.9488   23.9924 C   0  0  0  0  0  0  0  0  0  0  0  0
    6.3436   13.0905   26.0728 C   0  0  0  0  0  0  0  0  0  0  0  0
    6.1694   14.5993   25.8844 C   0  0  0  0  0  0  0  0  0  0  0  0
    7.4917   15.1172   25.3208 C   0  0  0  0  0  0  0  0  0  0  0  0
  1  2  2  0
  2  3  1  0
  3  4  1  0
  4  5  2  0
  5  6  1  0
  6  7  1  0
  2  8  1  0
  8  9  1  0
  9 10  1  0
 10  1  1  0
  7  3  2  0
M  END
>  <ref_pdb>  (471) 
A3485a

>  <subsites>  (471) 
1 - Active Site

>  <HIPPO Compound ID>  (471) 
14093

>  <energy_score>  (471) 
-12.465519

>  <fragmenstein_mode>  (471) 
expansion

>  <scratch_subdir>  (471) 
/opt/xchem-fragalysis-2/maxwin/BulkDock/SCRATCH/512192/C4790-P187

>  <smiles>  (471) 
C1=C(c2cn[nH]c2)CCC1

>  <alias>  (471) 
C4790-P187

>  <ref_mols>  (471) 
A3485a,A0556a

>  <inspiration_score>  (471) 
None

>  <tags>  (471) 
BulkDock Fragalysis export,fragmenstein_placed,openbind_a71ev2a_c1_knitwork_impure,openbind_a71ev2a_c1_scaffolds

>  <fragmenstein_outcome>  (471) 
acceptable

>  <fragmenstein_error>  (471) 


>  <distance_score>  (471) 
0.988134

>  <inchikey>  (471) 
SINRWOHZHXCYHE-UHFFFAOYSA-N

>  <name>  (471) 
C4790-P187

>  <HIPPO Pose ID>  (471) 
337735

>  <Energy>  (471) 
12.318405

>  <exports>  (471) 
['/opt/xchem-fragalysis-2/maxwin/BulkDock/OUTPUTS/openbind_a71ev2a_c1_knitwork_impure_165VXJF.sdf', '/opt/xchem-fragalysis-2/maxwin/BulkDock/OUTPUTS/openbind_a71ev2a_c1_knitwork_impure_1B07QS4.sdf', '/opt/xchem-fragalysis-2/maxwin/BulkDock/OUTPUTS/openbind_a71ev2a_c1_knitwork_impure_1B07X5R.sdf', '/opt/xchem-fragalysis-2/maxwin/openbind-hippo/a71ev2a/openbind_a71ev2a_c1_scaffold_products.sdf', '/opt/xchem-fragalysis-2/maxwin/openbind-hippo/a71ev2a/cycle_01/bulkdock/openbind_a71ev2a_c1_scaffold_products.sdf', '/opt/xchem-fragalysis-2/maxwin/openbind-hippo/a71ev2a/cycle_01/bulkdock/openbind_a71ev2a_c1_scaffolds.sdf']

>  <fragmenstein_runtime>  (471) 
1.272447

$$$$
C18177-P364
     RDKit          3D

 11 11  0  0  0  0  0  0  0  0999 V2000
    8.2412   14.9656   22.9795 C   0  0  0  0  0  0  0  0  0  0  0  0
    7.1632   14.1373   23.6431 C   0  0  0  0  0  0  0  0  0  0  0  0
    7.6849   13.3963   24.8617 C   0  0  0  0  0  0  0  0  0  0  0  0
    7.7583   13.8844   26.0652 N   0  0  0  0  0  0  0  0  0  0  0  0
    7.3490   15.2223   26.0725 O   0  0  0  0  0  0  0  0  0  0  0  0
    7.6523   15.7964   27.3323 C   0  0  0  0  0  0  0  0  0  0  0  0
    8.1646   12.0435   24.7173 C   0  0  0  0  0  0  0  0  0  0  0  0
    7.7540   10.9102   25.4348 C   0  0  0  0  0  0  0  0  0  0  0  0
    8.3878    9.8035   25.0483 N   0  0  0  0  0  0  0  0  0  0  0  0
    9.2207   10.2220   24.0793 N   0  0  0  0  0  0  0  0  0  0  0  0
    9.1275   11.5676   23.8519 C   0  0  0  0  0  0  0  0  0  0  0  0
  1  2  1  0
  2  3  1  0
  3  4  2  3
  4  5  1  0
  5  6  1  0
  3  7  1  0
  7  8  1  0
  8  9  2  0
  9 10  1  0
 10 11  1  0
 11  7  2  0
M  END
>  <ref_pdb>  (472) 
A4445b

>  <subsites>  (472) 
1 - Active Site

>  <HIPPO Compound ID>  (472) 
38436

>  <energy_score>  (472) 
-32.998201

>  <fragmenstein_mode>  (472) 
expansion

>  <scratch_subdir>  (472) 
/opt/xchem-fragalysis-2/maxwin/BulkDock/SCRATCH/512192/C18177-P364

>  <smiles>  (472) 
CCC(=NOC)c1cn[nH]c1

>  <alias>  (472) 
C18177-P364

>  <ref_mols>  (472) 
A4445b,A0556a

>  <inspiration_score>  (472) 
None

>  <tags>  (472) 
BulkDock Fragalysis export,fragmenstein_placed,openbind_a71ev2a_c1_knitwork_impure,openbind_a71ev2a_c1_scaffolds

>  <fragmenstein_outcome>  (472) 
acceptable

>  <fragmenstein_error>  (472) 


>  <distance_score>  (472) 
0.96422

>  <inchikey>  (472) 
JICXCXXASDPJKV-UHFFFAOYSA-N

>  <name>  (472) 
C18177-P364

>  <HIPPO Pose ID>  (472) 
337930

>  <Energy>  (472) 
36.506345

>  <exports>  (472) 
['/opt/xchem-fragalysis-2/maxwin/BulkDock/OUTPUTS/openbind_a71ev2a_c1_knitwork_impure_165VXJF.sdf', '/opt/xchem-fragalysis-2/maxwin/BulkDock/OUTPUTS/openbind_a71ev2a_c1_knitwork_impure_1B07QS4.sdf', '/opt/xchem-fragalysis-2/maxwin/BulkDock/OUTPUTS/openbind_a71ev2a_c1_knitwork_impure_1B07X5R.sdf', '/opt/xchem-fragalysis-2/maxwin/openbind-hippo/a71ev2a/openbind_a71ev2a_c1_scaffold_products.sdf', '/opt/xchem-fragalysis-2/maxwin/openbind-hippo/a71ev2a/cycle_01/bulkdock/openbind_a71ev2a_c1_scaffold_products.sdf', '/opt/xchem-fragalysis-2/maxwin/openbind-hippo/a71ev2a/cycle_01/bulkdock/openbind_a71ev2a_c1_scaffolds.sdf']

>  <fragmenstein_runtime>  (472) 
0.743312

$$$$
C8146-P93
     RDKit          3D

 18 18  0  0  0  0  0  0  0  0999 V2000
   11.5709   14.6453   22.6531 C   0  0  0  0  0  0  0  0  0  0  0  0
   11.0152   15.0271   21.3026 C   0  0  0  0  0  0  0  0  0  0  0  0
    9.5800   14.5459   21.0351 C   0  0  0  0  0  0  0  0  0  0  0  0
    8.4613   15.3415   21.6015 N   0  0  0  0  0  0  0  0  0  0  0  0
    8.6274   16.7824   21.6815 C   0  0  0  0  0  0  0  0  0  0  0  0
    9.0688   17.5361   20.4498 C   0  0  0  0  0  0  0  0  0  0  0  0
    7.0425   14.6713   22.1951 S   0  0  0  0  0  0  0  0  0  0  0  0
    7.0322   13.2462   21.9862 O   0  0  0  0  0  0  0  0  0  0  0  0
    5.9052   15.4677   21.8086 O   0  0  0  0  0  0  0  0  0  0  0  0
    7.1696   14.9746   23.8386 N   0  0  0  0  0  0  0  0  0  0  0  0
    8.2818   14.4990   24.6695 C   0  0  1  0  0  0  0  0  0  0  0  0
    7.9941   14.9090   26.1174 C   0  0  0  0  0  0  0  0  0  0  0  0
    8.5283   12.9996   24.4856 C   0  0  0  0  0  0  0  0  0  0  0  0
    7.4050   12.1003   25.0278 C   0  0  0  0  0  0  0  0  0  0  0  0
    7.9025   10.6837   25.2810 C   0  0  0  0  0  0  0  0  0  0  0  0
    8.8975   10.2553   24.3235 N   0  0  0  0  0  0  0  0  0  0  0  0
   10.0917   11.0933   24.3469 C   0  0  0  0  0  0  0  0  0  0  0  0
    9.8772   12.4820   24.9705 C   0  0  0  0  0  0  0  0  0  0  0  0
  1  2  1  0
  2  3  1  0
  3  4  1  0
  4  5  1  0
  5  6  1  0
  4  7  1  0
  7  8  2  0
  7  9  2  0
  7 10  1  0
 10 11  1  0
 11 12  1  1
 11 13  1  0
 13 14  1  0
 14 15  1  0
 15 16  1  0
 16 17  1  0
 17 18  1  0
 18 13  1  0
M  END
>  <ref_pdb>  (473) 
A0926a

>  <subsites>  (473) 
1 - Active Site

>  <HIPPO Compound ID>  (473) 
10284

>  <energy_score>  (473) 
-34.543368

>  <fragmenstein_mode>  (473) 
expansion

>  <scratch_subdir>  (473) 
/opt/xchem-fragalysis-2/maxwin/BulkDock/SCRATCH/512193/C8146-P93

>  <smiles>  (473) 
CCCN(CC)S(=O)(=O)N[C@@H](C)C1CCNCC1

>  <alias>  (473) 
C8146-P93

>  <ref_mols>  (473) 
A0719a,A0926a

>  <inspiration_score>  (473) 
None

>  <tags>  (473) 
BulkDock Fragalysis export,fragmenstein_placed,openbind_a71ev2a_c1_knitwork_impure,openbind_a71ev2a_c1_scaffolds

>  <fragmenstein_outcome>  (473) 
acceptable

>  <fragmenstein_error>  (473) 


>  <distance_score>  (473) 
0.882252

>  <inchikey>  (473) 
DJZJZIVHKYRBPY-UHFFFAOYSA-N

>  <name>  (473) 
C8146-P93

>  <HIPPO Pose ID>  (473) 
338111

>  <Energy>  (473) 
-147.303321

>  <exports>  (473) 
['/opt/xchem-fragalysis-2/maxwin/BulkDock/OUTPUTS/openbind_a71ev2a_c1_knitwork_impure_165VXJF.sdf', '/opt/xchem-fragalysis-2/maxwin/BulkDock/OUTPUTS/openbind_a71ev2a_c1_knitwork_impure_1B07QS4.sdf', '/opt/xchem-fragalysis-2/maxwin/BulkDock/OUTPUTS/openbind_a71ev2a_c1_knitwork_impure_1B07X5R.sdf', '/opt/xchem-fragalysis-2/maxwin/openbind-hippo/a71ev2a/openbind_a71ev2a_c1_scaffold_products.sdf', '/opt/xchem-fragalysis-2/maxwin/openbind-hippo/a71ev2a/cycle_01/bulkdock/openbind_a71ev2a_c1_scaffold_products.sdf', '/opt/xchem-fragalysis-2/maxwin/openbind-hippo/a71ev2a/cycle_01/bulkdock/openbind_a71ev2a_c1_scaffolds.sdf']

>  <fragmenstein_runtime>  (473) 
72.904619

$$$$
C8169-P93
     RDKit          3D

 14 14  0  0  0  0  0  0  0  0999 V2000
    7.2405   13.3286   22.4855 O   0  0  0  0  0  0  0  0  0  0  0  0
    8.5632   13.4234   23.0499 S   0  0  0  0  0  0  0  0  0  0  0  0
    9.6441   12.6127   22.5639 O   0  0  0  0  0  0  0  0  0  0  0  0
    8.3557   13.1299   24.6988 N   0  0  0  0  0  0  0  0  0  0  0  0
    8.1208   11.7003   25.0434 C   0  0  0  0  0  0  0  0  0  0  0  0
    9.0874   10.8267   24.2735 C   0  0  0  0  0  0  0  0  0  0  0  0
    9.3859    9.4795   24.7875 C   0  0  0  0  0  0  0  0  0  0  0  0
   10.3487    8.5997   23.6119 Cl  0  0  0  0  0  0  0  0  0  0  0  0
    9.1229   14.9927   23.0763 N   0  0  0  0  0  0  0  0  0  0  0  0
   10.4972   15.1355   23.6355 C   0  0  0  0  0  0  0  0  0  0  0  0
   11.6037   14.7279   22.6652 C   0  0  0  0  0  0  0  0  0  0  0  0
   11.4476   15.4079   21.3185 C   0  0  0  0  0  0  0  0  0  0  0  0
   10.0467   15.2307   20.7570 C   0  0  0  0  0  0  0  0  0  0  0  0
    8.9910   15.6889   21.7562 C   0  0  0  0  0  0  0  0  0  0  0  0
  1  2  2  0
  2  3  2  0
  2  4  1  0
  4  5  1  0
  5  6  1  0
  6  7  1  0
  7  8  1  0
  2  9  1  0
  9 10  1  0
 10 11  1  0
 11 12  1  0
 12 13  1  0
 13 14  1  0
 14  9  1  0
M  END
>  <ref_pdb>  (474) 
A0926a

>  <subsites>  (474) 
1 - Active Site

>  <HIPPO Compound ID>  (474) 
18032

>  <energy_score>  (474) 
-67.933579

>  <fragmenstein_mode>  (474) 
expansion

>  <scratch_subdir>  (474) 
/opt/xchem-fragalysis-2/maxwin/BulkDock/SCRATCH/512193/C8169-P93

>  <smiles>  (474) 
O=S(=O)(NCCCCl)N1CCCCC1

>  <alias>  (474) 
C8169-P93

>  <ref_mols>  (474) 
A0719a,A0926a

>  <inspiration_score>  (474) 
None

>  <tags>  (474) 
BulkDock Fragalysis export,fragmenstein_placed,openbind_a71ev2a_c1_knitwork_impure,openbind_a71ev2a_c1_scaffolds

>  <fragmenstein_outcome>  (474) 
acceptable

>  <fragmenstein_error>  (474) 


>  <distance_score>  (474) 
0.964302

>  <inchikey>  (474) 
XZDJAODRDBHFTF-UHFFFAOYSA-N

>  <name>  (474) 
C8169-P93

>  <HIPPO Pose ID>  (474) 
338130

>  <Energy>  (474) 
-164.449977

>  <exports>  (474) 
['/opt/xchem-fragalysis-2/maxwin/BulkDock/OUTPUTS/openbind_a71ev2a_c1_knitwork_impure_165VXJF.sdf', '/opt/xchem-fragalysis-2/maxwin/BulkDock/OUTPUTS/openbind_a71ev2a_c1_knitwork_impure_1B07QS4.sdf', '/opt/xchem-fragalysis-2/maxwin/BulkDock/OUTPUTS/openbind_a71ev2a_c1_knitwork_impure_1B07X5R.sdf', '/opt/xchem-fragalysis-2/maxwin/openbind-hippo/a71ev2a/openbind_a71ev2a_c1_scaffold_products.sdf', '/opt/xchem-fragalysis-2/maxwin/openbind-hippo/a71ev2a/cycle_01/bulkdock/openbind_a71ev2a_c1_scaffold_products.sdf', '/opt/xchem-fragalysis-2/maxwin/openbind-hippo/a71ev2a/cycle_01/bulkdock/openbind_a71ev2a_c1_scaffolds.sdf']

>  <fragmenstein_runtime>  (474) 
5.263124

$$$$
C901-P354
     RDKit          3D

 23 26  0  0  0  0  0  0  0  0999 V2000
   25.5014   16.3013   24.8713 O   0  0  0  0  0  0  0  0  0  0  0  0
   24.7465   17.1928   24.9352 C   0  0  0  0  0  0  0  0  0  0  0  0
   25.0807   18.5892   24.4260 C   0  0  0  0  0  0  0  0  0  0  0  0
   24.2557   18.9725   23.1980 C   0  0  0  0  0  0  0  0  0  0  0  0
   24.9121   20.0800   22.4131 C   0  0  0  0  0  0  0  0  0  0  0  0
   24.4431   21.4083   22.4951 C   0  0  0  0  0  0  0  0  0  0  0  0
   25.0576   22.4303   21.7626 C   0  0  0  0  0  0  0  0  0  0  0  0
   26.1284   22.0957   20.9618 C   0  0  0  0  0  0  0  0  0  0  0  0
   26.5952   20.8076   20.8835 C   0  0  0  0  0  0  0  0  0  0  0  0
   26.0146   19.7828   21.5965 C   0  0  0  0  0  0  0  0  0  0  0  0
   27.6577   20.6885   20.0457 O   0  0  0  0  0  0  0  0  0  0  0  0
   27.7623   22.0346   19.5505 C   0  0  0  0  0  0  0  0  0  0  0  0
   26.8372   22.9514   20.1773 O   0  0  0  0  0  0  0  0  0  0  0  0
   23.3071   17.2535   25.5170 N   0  0  0  0  0  0  0  0  0  0  0  0
   22.5187   16.2718   26.0196 C   0  0  0  0  0  0  0  0  0  0  0  0
   22.8048   14.8956   26.1020 C   0  0  0  0  0  0  0  0  0  0  0  0
   21.6703   14.3311   26.6368 C   0  0  0  0  0  0  0  0  0  0  0  0
   20.8194   15.3718   26.8833 N   0  0  0  0  0  0  0  0  0  0  0  0
   19.4567   15.2261   27.4305 C   0  0  0  0  0  0  0  0  0  0  0  0
   19.1007   16.3068   28.4860 C   0  0  0  0  0  0  0  0  0  0  0  0
   18.3774   15.1921   29.2698 C   0  0  0  0  0  0  0  0  0  0  0  0
   19.3363   14.1971   28.5853 C   0  0  0  0  0  0  0  0  0  0  0  0
   21.3074   16.5628   26.4936 N   0  0  0  0  0  0  0  0  0  0  0  0
  1  2  2  0
  2  3  1  0
  3  4  1  0
  4  5  1  0
  5  6  2  0
  6  7  1  0
  7  8  2  0
  8  9  1  0
  9 10  2  0
  9 11  1  0
 11 12  1  0
 12 13  1  0
  2 14  1  0
 14 15  1  0
 15 16  1  0
 16 17  2  0
 17 18  1  0
 18 19  1  0
 19 20  1  0
 20 21  1  0
 21 22  1  0
 18 23  1  0
 10  5  1  0
 23 15  2  0
 13  8  1  0
 22 19  1  0
M  END
>  <ref_pdb>  (475) 
A4415a

>  <subsites>  (475) 
1 - Active Site,5 - A3181/A/202/1

>  <HIPPO Compound ID>  (475) 
3775

>  <energy_score>  (475) 
-36.393345

>  <fragmenstein_mode>  (475) 
expansion

>  <scratch_subdir>  (475) 
/opt/xchem-fragalysis-2/maxwin/BulkDock/SCRATCH/512193/C901-P354

>  <smiles>  (475) 
O=C(CCc1ccc2c(c1)OCO2)Nc1ccn(C2CCC2)n1

>  <alias>  (475) 
C901-P354

>  <ref_mols>  (475) 
A0351b,A4415a

>  <inspiration_score>  (475) 
None

>  <tags>  (475) 
BulkDock Fragalysis export,fragmenstein_placed,openbind_a71ev2a_c1_knitwork_impure,openbind_a71ev2a_c1_scaffolds

>  <fragmenstein_outcome>  (475) 
acceptable

>  <fragmenstein_error>  (475) 


>  <distance_score>  (475) 
0.681625

>  <inchikey>  (475) 
INAHVQSNTWKORJ-UHFFFAOYSA-N

>  <name>  (475) 
C901-P354

>  <HIPPO Pose ID>  (475) 
338239

>  <Energy>  (475) 
2.141235

>  <exports>  (475) 
['/opt/xchem-fragalysis-2/maxwin/BulkDock/OUTPUTS/openbind_a71ev2a_c1_knitwork_impure_165VXJF.sdf', '/opt/xchem-fragalysis-2/maxwin/BulkDock/OUTPUTS/openbind_a71ev2a_c1_knitwork_impure_1B07QS4.sdf', '/opt/xchem-fragalysis-2/maxwin/BulkDock/OUTPUTS/openbind_a71ev2a_c1_knitwork_impure_1B07X5R.sdf', '/opt/xchem-fragalysis-2/maxwin/openbind-hippo/a71ev2a/openbind_a71ev2a_c1_scaffold_products.sdf', '/opt/xchem-fragalysis-2/maxwin/openbind-hippo/a71ev2a/cycle_01/bulkdock/openbind_a71ev2a_c1_scaffold_products.sdf', '/opt/xchem-fragalysis-2/maxwin/openbind-hippo/a71ev2a/cycle_01/bulkdock/openbind_a71ev2a_c1_scaffolds.sdf']

>  <fragmenstein_runtime>  (475) 
19.627381

$$$$
C6260-P558
     RDKit          3D

 12 14  0  0  0  0  0  0  0  0999 V2000
    9.3498   10.6533   23.7701 C   0  0  0  0  0  0  0  0  0  0  0  0
    8.4772   10.6946   24.8369 C   0  0  0  0  0  0  0  0  0  0  0  0
    8.1093   11.8373   25.4495 N   0  0  0  0  0  0  0  0  0  0  0  0
    8.6153   12.9934   24.9424 C   0  0  0  0  0  0  0  0  0  0  0  0
    9.5020   13.0833   23.8689 C   0  0  0  0  0  0  0  0  0  0  0  0
   10.0186   14.3927   23.3125 C   0  0  2  0  0  0  0  0  0  0  0  0
    9.3573   14.9268   22.0589 C   0  0  0  0  0  0  0  0  0  0  0  0
   10.4477   14.9629   21.0622 N   0  0  0  0  0  0  0  0  0  0  0  0
   11.6848   15.2935   21.7922 C   0  0  0  0  0  0  0  0  0  0  0  0
   11.4873   14.6401   23.1248 C   0  0  1  0  0  0  0  0  0  0  0  0
   10.7637   15.3371   24.2369 C   0  0  0  0  0  0  0  0  0  0  0  0
    9.8586   11.8603   23.2966 C   0  0  0  0  0  0  0  0  0  0  0  0
  1  2  2  0
  2  3  1  0
  3  4  2  0
  4  5  1  0
  6  5  1  1
  6  7  1  0
  7  8  1  0
  8  9  1  0
 10  9  1  6
 10 11  1  0
  5 12  2  0
 12  1  1  0
 10  6  1  0
 11  6  1  0
M  END
>  <ref_pdb>  (476) 
A5079b

>  <subsites>  (476) 
1 - Active Site

>  <HIPPO Compound ID>  (476) 
6013

>  <energy_score>  (476) 
-14.270344

>  <fragmenstein_mode>  (476) 
expansion

>  <scratch_subdir>  (476) 
/opt/xchem-fragalysis-2/maxwin/BulkDock/SCRATCH/512193/C6260-P558

>  <smiles>  (476) 
c1cncc([C@]23CNC[C@H]2C3)c1

>  <alias>  (476) 
C6260-P558

>  <ref_mols>  (476) 
A5079b,A2629a

>  <inspiration_score>  (476) 
None

>  <tags>  (476) 
BulkDock Fragalysis export,fragmenstein_placed,openbind_a71ev2a_c1_knitwork_impure,openbind_a71ev2a_c1_scaffolds

>  <fragmenstein_outcome>  (476) 
acceptable

>  <fragmenstein_error>  (476) 


>  <distance_score>  (476) 
0.948819

>  <inchikey>  (476) 
ZBXBLXXYJIHBMH-UHFFFAOYSA-N

>  <name>  (476) 
C6260-P558

>  <HIPPO Pose ID>  (476) 
338297

>  <Energy>  (476) 
40.251082

>  <exports>  (476) 
['/opt/xchem-fragalysis-2/maxwin/BulkDock/OUTPUTS/openbind_a71ev2a_c1_knitwork_impure_165VXJF.sdf', '/opt/xchem-fragalysis-2/maxwin/BulkDock/OUTPUTS/openbind_a71ev2a_c1_knitwork_impure_1B07QS4.sdf', '/opt/xchem-fragalysis-2/maxwin/BulkDock/OUTPUTS/openbind_a71ev2a_c1_knitwork_impure_1B07X5R.sdf', '/opt/xchem-fragalysis-2/maxwin/openbind-hippo/a71ev2a/openbind_a71ev2a_c1_scaffold_products.sdf', '/opt/xchem-fragalysis-2/maxwin/openbind-hippo/a71ev2a/cycle_01/bulkdock/openbind_a71ev2a_c1_scaffold_products.sdf', '/opt/xchem-fragalysis-2/maxwin/openbind-hippo/a71ev2a/cycle_01/bulkdock/openbind_a71ev2a_c1_scaffolds.sdf']

>  <fragmenstein_runtime>  (476) 
6.852814

$$$$
C6285-P558
     RDKit          3D

 12 13  0  0  0  0  0  0  0  0999 V2000
    9.4557   10.7967   23.6134 C   0  0  0  0  0  0  0  0  0  0  0  0
    8.6174   10.6332   24.6987 C   0  0  0  0  0  0  0  0  0  0  0  0
    8.1486   11.6595   25.4327 N   0  0  0  0  0  0  0  0  0  0  0  0
    8.5006   12.9059   25.0138 C   0  0  0  0  0  0  0  0  0  0  0  0
    9.3241   13.1974   23.9205 C   0  0  0  0  0  0  0  0  0  0  0  0
    9.6247   14.5153   23.5874 N   0  0  0  0  0  0  0  0  0  0  0  0
   10.7996   15.0661   24.2879 C   0  0  0  0  0  0  0  0  0  0  0  0
   12.0906   14.9009   23.4606 C   0  0  0  0  0  0  0  0  0  0  0  0
   11.9944   15.5583   22.1538 N   0  0  0  0  0  0  0  0  0  0  0  0
   10.8682   14.9702   21.4046 C   0  0  0  0  0  0  0  0  0  0  0  0
    9.5212   14.9624   22.1714 C   0  0  0  0  0  0  0  0  0  0  0  0
    9.8160   12.0924   23.2362 C   0  0  0  0  0  0  0  0  0  0  0  0
  1  2  2  0
  2  3  1  0
  3  4  2  0
  4  5  1  0
  5  6  1  0
  6  7  1  0
  7  8  1  0
  8  9  1  0
  9 10  1  0
 10 11  1  0
  5 12  2  0
 12  1  1  0
 11  6  1  0
M  END
>  <ref_pdb>  (477) 
A5079b

>  <subsites>  (477) 
1 - Active Site

>  <HIPPO Compound ID>  (477) 
2609

>  <energy_score>  (477) 
-13.615116

>  <fragmenstein_mode>  (477) 
expansion

>  <scratch_subdir>  (477) 
/opt/xchem-fragalysis-2/maxwin/BulkDock/SCRATCH/512193/C6285-P558

>  <smiles>  (477) 
c1cncc(N2CCNCC2)c1

>  <alias>  (477) 
C6285-P558

>  <ref_mols>  (477) 
A5079b,A2629a

>  <inspiration_score>  (477) 
None

>  <tags>  (477) 
BulkDock Fragalysis export,fragmenstein_placed,openbind_a71ev2a_c1_knitwork_impure,openbind_a71ev2a_c1_scaffolds

>  <fragmenstein_outcome>  (477) 
acceptable

>  <fragmenstein_error>  (477) 


>  <distance_score>  (477) 
0.878857

>  <inchikey>  (477) 
KGAKJVPCKUCLKV-UHFFFAOYSA-N

>  <name>  (477) 
C6285-P558

>  <HIPPO Pose ID>  (477) 
338303

>  <Energy>  (477) 
117.53804

>  <exports>  (477) 
['/opt/xchem-fragalysis-2/maxwin/BulkDock/OUTPUTS/openbind_a71ev2a_c1_knitwork_impure_165VXJF.sdf', '/opt/xchem-fragalysis-2/maxwin/BulkDock/OUTPUTS/openbind_a71ev2a_c1_knitwork_impure_1B07QS4.sdf', '/opt/xchem-fragalysis-2/maxwin/BulkDock/OUTPUTS/openbind_a71ev2a_c1_knitwork_impure_1B07X5R.sdf', '/opt/xchem-fragalysis-2/maxwin/openbind-hippo/a71ev2a/openbind_a71ev2a_c1_scaffold_products.sdf', '/opt/xchem-fragalysis-2/maxwin/openbind-hippo/a71ev2a/cycle_01/bulkdock/openbind_a71ev2a_c1_scaffold_products.sdf', '/opt/xchem-fragalysis-2/maxwin/openbind-hippo/a71ev2a/cycle_01/bulkdock/openbind_a71ev2a_c1_scaffolds.sdf']

>  <fragmenstein_runtime>  (477) 
12.232976

$$$$
C709-P558
     RDKit          3D

 12 13  0  0  0  0  0  0  0  0999 V2000
    9.4561   10.7900   23.6176 C   0  0  0  0  0  0  0  0  0  0  0  0
    8.6075   10.6031   24.6913 C   0  0  0  0  0  0  0  0  0  0  0  0
    8.1071   11.6153   25.4243 N   0  0  0  0  0  0  0  0  0  0  0  0
    8.4377   12.8707   25.0173 C   0  0  0  0  0  0  0  0  0  0  0  0
    9.2701   13.1843   23.9374 C   0  0  0  0  0  0  0  0  0  0  0  0
    9.5533   14.5061   23.6145 N   0  0  0  0  0  0  0  0  0  0  0  0
   10.7217   15.0833   24.2946 C   0  0  0  0  0  0  0  0  0  0  0  0
   12.0199   14.9054   23.5071 C   0  0  0  0  0  0  0  0  0  0  0  0
   11.9502   15.7910   21.9267 S   0  0  0  0  0  0  0  0  0  0  0  0
   10.4578   14.9813   21.2747 C   0  0  0  0  0  0  0  0  0  0  0  0
    9.2729   15.0098   22.2483 C   0  0  0  0  0  0  0  0  0  0  0  0
    9.7956   12.0947   23.2528 C   0  0  0  0  0  0  0  0  0  0  0  0
  1  2  2  0
  2  3  1  0
  3  4  2  0
  4  5  1  0
  5  6  1  0
  6  7  1  0
  7  8  1  0
  8  9  1  0
  9 10  1  0
 10 11  1  0
  5 12  2  0
 12  1  1  0
 11  6  1  0
M  END
>  <ref_pdb>  (478) 
A5079b

>  <subsites>  (478) 
1 - Active Site

>  <HIPPO Compound ID>  (478) 
6170

>  <energy_score>  (478) 
-13.92538

>  <fragmenstein_mode>  (478) 
expansion

>  <scratch_subdir>  (478) 
/opt/xchem-fragalysis-2/maxwin/BulkDock/SCRATCH/512193/C709-P558

>  <smiles>  (478) 
c1cncc(N2CCSCC2)c1

>  <alias>  (478) 
C709-P558

>  <ref_mols>  (478) 
A5079b,A2629a

>  <inspiration_score>  (478) 
None

>  <tags>  (478) 
BulkDock Fragalysis export,fragmenstein_placed,openbind_a71ev2a_c1_knitwork_impure,openbind_a71ev2a_c1_scaffolds

>  <fragmenstein_outcome>  (478) 
acceptable

>  <fragmenstein_error>  (478) 


>  <distance_score>  (478) 
0.938556

>  <inchikey>  (478) 
MTBPSJNSQYHQEE-UHFFFAOYSA-N

>  <name>  (478) 
C709-P558

>  <HIPPO Pose ID>  (478) 
338309

>  <Energy>  (478) 
91.986467

>  <exports>  (478) 
['/opt/xchem-fragalysis-2/maxwin/BulkDock/OUTPUTS/openbind_a71ev2a_c1_knitwork_impure_165VXJF.sdf', '/opt/xchem-fragalysis-2/maxwin/BulkDock/OUTPUTS/openbind_a71ev2a_c1_knitwork_impure_1B07QS4.sdf', '/opt/xchem-fragalysis-2/maxwin/BulkDock/OUTPUTS/openbind_a71ev2a_c1_knitwork_impure_1B07X5R.sdf', '/opt/xchem-fragalysis-2/maxwin/openbind-hippo/a71ev2a/openbind_a71ev2a_c1_scaffold_products.sdf', '/opt/xchem-fragalysis-2/maxwin/openbind-hippo/a71ev2a/cycle_01/bulkdock/openbind_a71ev2a_c1_scaffold_products.sdf', '/opt/xchem-fragalysis-2/maxwin/openbind-hippo/a71ev2a/cycle_01/bulkdock/openbind_a71ev2a_c1_scaffolds.sdf']

>  <fragmenstein_runtime>  (478) 
8.587821

$$$$
C725-P558
     RDKit          3D

 12 13  0  0  0  0  0  0  0  0999 V2000
    8.4624   10.5566   24.7949 C   0  0  0  0  0  0  0  0  0  0  0  0
    9.3326   10.6250   23.7234 C   0  0  0  0  0  0  0  0  0  0  0  0
    9.7278   11.8761   23.2494 C   0  0  0  0  0  0  0  0  0  0  0  0
    9.2731   13.0391   23.8549 C   0  0  0  0  0  0  0  0  0  0  0  0
    9.5348   14.2882   23.3374 N   0  0  0  0  0  0  0  0  0  0  0  0
   10.1617   15.2502   24.2343 C   0  0  0  0  0  0  0  0  0  0  0  0
   11.6730   15.3022   23.9946 C   0  0  0  0  0  0  0  0  0  0  0  0
   12.0885   15.8408   22.3033 S   0  0  0  0  0  0  0  0  0  0  0  0
   11.0875   14.6229   21.3954 C   0  0  0  0  0  0  0  0  0  0  0  0
    9.6430   14.5748   21.8988 C   0  0  0  0  0  0  0  0  0  0  0  0
    8.5055   12.9632   24.9646 N   0  0  0  0  0  0  0  0  0  0  0  0
    8.0820   11.7465   25.3794 C   0  0  0  0  0  0  0  0  0  0  0  0
  1  2  2  0
  2  3  1  0
  3  4  2  0
  4  5  1  0
  5  6  1  0
  6  7  1  0
  7  8  1  0
  8  9  1  0
  9 10  1  0
  4 11  1  0
 11 12  2  0
 12  1  1  0
 10  5  1  0
M  END
>  <ref_pdb>  (479) 
A5079b

>  <subsites>  (479) 
1 - Active Site

>  <HIPPO Compound ID>  (479) 
14936

>  <energy_score>  (479) 
-8.571863

>  <fragmenstein_mode>  (479) 
expansion

>  <scratch_subdir>  (479) 
/opt/xchem-fragalysis-2/maxwin/BulkDock/SCRATCH/512193/C725-P558

>  <smiles>  (479) 
c1ccc(N2CCSCC2)nc1

>  <alias>  (479) 
C725-P558

>  <ref_mols>  (479) 
A5079b,A2629a

>  <inspiration_score>  (479) 
None

>  <tags>  (479) 
BulkDock Fragalysis export,fragmenstein_placed,openbind_a71ev2a_c1_knitwork_impure,openbind_a71ev2a_c1_scaffolds

>  <fragmenstein_outcome>  (479) 
acceptable

>  <fragmenstein_error>  (479) 


>  <distance_score>  (479) 
0.930597

>  <inchikey>  (479) 
TYVKHTBDVKDANR-UHFFFAOYSA-N

>  <name>  (479) 
C725-P558

>  <HIPPO Pose ID>  (479) 
338315

>  <Energy>  (479) 
36.04058

>  <exports>  (479) 
['/opt/xchem-fragalysis-2/maxwin/BulkDock/OUTPUTS/openbind_a71ev2a_c1_knitwork_impure_165VXJF.sdf', '/opt/xchem-fragalysis-2/maxwin/BulkDock/OUTPUTS/openbind_a71ev2a_c1_knitwork_impure_1B07QS4.sdf', '/opt/xchem-fragalysis-2/maxwin/BulkDock/OUTPUTS/openbind_a71ev2a_c1_knitwork_impure_1B07X5R.sdf', '/opt/xchem-fragalysis-2/maxwin/openbind-hippo/a71ev2a/openbind_a71ev2a_c1_scaffold_products.sdf', '/opt/xchem-fragalysis-2/maxwin/openbind-hippo/a71ev2a/cycle_01/bulkdock/openbind_a71ev2a_c1_scaffold_products.sdf', '/opt/xchem-fragalysis-2/maxwin/openbind-hippo/a71ev2a/cycle_01/bulkdock/openbind_a71ev2a_c1_scaffolds.sdf']

>  <fragmenstein_runtime>  (479) 
6.985307

$$$$
C961-P289
     RDKit          3D

 18 20  0  0  0  0  0  0  0  0999 V2000
   25.9250   12.3187   -2.1671 O   0  0  0  0  0  0  0  0  0  0  0  0
   25.0352   11.8292   -1.5864 C   0  0  0  0  0  0  0  0  0  0  0  0
   23.7610   11.1038   -2.1162 N   0  0  0  0  0  0  0  0  0  0  0  0
   23.3055   10.9294   -3.3945 N   0  0  0  0  0  0  0  0  0  0  0  0
   22.9684    9.6401   -3.7074 C   0  0  0  0  0  0  0  0  0  0  0  0
   22.6558    8.6926   -2.8805 N   0  0  0  0  0  0  0  0  0  0  0  0
   22.4092    7.4438   -3.6304 C   0  0  0  0  0  0  0  0  0  0  0  0
   21.9896    7.7669   -5.0535 C   0  0  0  0  0  0  0  0  0  0  0  0
   22.9464    9.2490   -5.4114 S   0  0  0  0  0  0  0  0  0  0  0  0
   24.9945   11.7049   -0.0564 C   0  0  1  0  0  0  0  0  0  0  0  0
   26.3354   12.0828    0.5938 C   0  0  0  0  0  0  0  0  0  0  0  0
   26.2179   12.0018    2.1202 C   0  0  0  0  0  0  0  0  0  0  0  0
   25.1467   12.9574    2.6539 C   0  0  0  0  0  0  0  0  0  0  0  0
   23.9835   13.0266    1.8005 N   0  0  0  0  0  0  0  0  0  0  0  0
   22.8061   13.6502    2.0492 C   0  0  0  0  0  0  0  0  0  0  0  0
   22.0247   13.5290    0.9997 N   0  0  0  0  0  0  0  0  0  0  0  0
   22.7077   12.8045    0.0462 N   0  0  0  0  0  0  0  0  0  0  0  0
   23.8969   12.5203    0.5326 C   0  0  0  0  0  0  0  0  0  0  0  0
  1  2  2  0
  2  3  1  0
  3  4  1  0
  4  5  1  0
  5  6  2  0
  6  7  1  0
  7  8  1  0
  8  9  1  0
 10  2  1  6
 10 11  1  0
 11 12  1  0
 12 13  1  0
 13 14  1  0
 14 15  1  0
 15 16  2  0
 16 17  1  0
 17 18  2  0
  9  5  1  0
 18 10  1  0
 18 14  1  0
M  END
>  <ref_pdb>  (480) 
A4305a

>  <subsites>  (480) 
1 - Active Site,6 - A0486/A/147/1

>  <HIPPO Compound ID>  (480) 
43497

>  <energy_score>  (480) 
-43.937348

>  <fragmenstein_mode>  (480) 
expansion

>  <scratch_subdir>  (480) 
/opt/xchem-fragalysis-2/maxwin/BulkDock/SCRATCH/512193/C961-P289

>  <smiles>  (480) 
O=C(NNC1=NCCS1)[C@H]1CCCn2cnnc21

>  <alias>  (480) 
C961-P289

>  <ref_mols>  (480) 
A4305a,A0239a

>  <inspiration_score>  (480) 
None

>  <tags>  (480) 
BulkDock Fragalysis export,fragmenstein_placed,openbind_a71ev2a_c1_knitwork_impure,openbind_a71ev2a_c1_scaffolds

>  <fragmenstein_outcome>  (480) 
acceptable

>  <fragmenstein_error>  (480) 


>  <distance_score>  (480) 
0.439188

>  <inchikey>  (480) 
FUNCVLSABIHRON-UHFFFAOYSA-N

>  <name>  (480) 
C961-P289

>  <HIPPO Pose ID>  (480) 
339308

>  <Energy>  (480) 
28.559017

>  <exports>  (480) 
['/opt/xchem-fragalysis-2/maxwin/BulkDock/OUTPUTS/openbind_a71ev2a_c1_knitwork_impure_165VXJF.sdf', '/opt/xchem-fragalysis-2/maxwin/BulkDock/OUTPUTS/openbind_a71ev2a_c1_knitwork_impure_1B07QS4.sdf', '/opt/xchem-fragalysis-2/maxwin/BulkDock/OUTPUTS/openbind_a71ev2a_c1_knitwork_impure_1B07X5R.sdf', '/opt/xchem-fragalysis-2/maxwin/openbind-hippo/a71ev2a/openbind_a71ev2a_c1_scaffold_products.sdf', '/opt/xchem-fragalysis-2/maxwin/openbind-hippo/a71ev2a/cycle_01/bulkdock/openbind_a71ev2a_c1_scaffold_products.sdf', '/opt/xchem-fragalysis-2/maxwin/openbind-hippo/a71ev2a/cycle_01/bulkdock/openbind_a71ev2a_c1_scaffolds.sdf']

>  <fragmenstein_runtime>  (480) 
1.511364

$$$$
C4728-P277
     RDKit          3D

  9  9  0  0  0  0  0  0  0  0999 V2000
    8.0931   11.0225   25.6861 O   0  0  0  0  0  0  0  0  0  0  0  0
    7.9697   12.1536   25.2243 C   0  0  0  0  0  0  0  0  0  0  0  0
    9.1363   13.0802   25.0029 C   0  0  0  0  0  0  0  0  0  0  0  0
    9.0147   13.7527   23.6423 C   0  0  0  0  0  0  0  0  0  0  0  0
    9.9848   14.8237   23.4706 N   0  0  0  0  0  0  0  0  0  0  0  0
   11.3885   14.3849   23.3717 C   0  0  0  0  0  0  0  0  0  0  0  0
   12.0156   15.4184   22.5042 C   0  0  0  0  0  0  0  0  0  0  0  0
   11.0733   16.1237   21.8752 C   0  0  0  0  0  0  0  0  0  0  0  0
    9.7223   15.6425   22.2665 C   0  0  0  0  0  0  0  0  0  0  0  0
  1  2  2  0
  2  3  1  0
  3  4  1  0
  4  5  1  0
  5  6  1  0
  6  7  1  0
  7  8  2  0
  8  9  1  0
  9  5  1  0
M  END
>  <ref_pdb>  (481) 
A4032b

>  <subsites>  (481) 
1 - Active Site

>  <HIPPO Compound ID>  (481) 
5648

>  <energy_score>  (481) 
-12.434737

>  <fragmenstein_mode>  (481) 
expansion

>  <scratch_subdir>  (481) 
/opt/xchem-fragalysis-2/maxwin/BulkDock/SCRATCH/512193/C4728-P277

>  <smiles>  (481) 
O=CCCN1CC=CC1

>  <alias>  (481) 
C4728-P277

>  <ref_mols>  (481) 
A1775a,A4032b

>  <inspiration_score>  (481) 
None

>  <tags>  (481) 
BulkDock Fragalysis export,fragmenstein_placed,openbind_a71ev2a_c1_knitwork_impure,openbind_a71ev2a_c1_scaffolds

>  <fragmenstein_outcome>  (481) 
acceptable

>  <fragmenstein_error>  (481) 


>  <distance_score>  (481) 
0.996913

>  <inchikey>  (481) 
HCFLACFMBGGTGN-UHFFFAOYSA-N

>  <name>  (481) 
C4728-P277

>  <HIPPO Pose ID>  (481) 
340548

>  <Energy>  (481) 
-1.263972

>  <exports>  (481) 
['/opt/xchem-fragalysis-2/maxwin/BulkDock/OUTPUTS/openbind_a71ev2a_c1_knitwork_impure_165VXJF.sdf', '/opt/xchem-fragalysis-2/maxwin/BulkDock/OUTPUTS/openbind_a71ev2a_c1_knitwork_impure_1B07QS4.sdf', '/opt/xchem-fragalysis-2/maxwin/BulkDock/OUTPUTS/openbind_a71ev2a_c1_knitwork_impure_1B07X5R.sdf', '/opt/xchem-fragalysis-2/maxwin/openbind-hippo/a71ev2a/openbind_a71ev2a_c1_scaffold_products.sdf', '/opt/xchem-fragalysis-2/maxwin/openbind-hippo/a71ev2a/cycle_01/bulkdock/openbind_a71ev2a_c1_scaffold_products.sdf', '/opt/xchem-fragalysis-2/maxwin/openbind-hippo/a71ev2a/cycle_01/bulkdock/openbind_a71ev2a_c1_scaffolds.sdf']

>  <fragmenstein_runtime>  (481) 
1.014738

$$$$
C15044-P77
     RDKit          3D

 15 15  0  0  0  0  0  0  0  0999 V2000
   11.6423   14.2988   18.6912 N   0  0  0  0  0  0  0  0  0  0  0  0
   11.1436   14.9132   19.5367 C   0  0  0  0  0  0  0  0  0  0  0  0
   10.6419   15.7043   20.6516 C   0  0  0  0  0  0  0  0  0  0  0  0
   11.6717   15.7569   21.7830 C   0  0  0  0  0  0  0  0  0  0  0  0
   11.8469   14.5080   22.6414 C   0  0  0  0  0  0  0  0  0  0  0  0
   10.8587   14.3928   23.7350 N   0  0  0  0  0  0  0  0  0  0  0  0
    9.2999   13.9885   23.2607 S   0  0  0  0  0  0  0  0  0  0  0  0
    8.4936   15.1625   23.4722 O   0  0  0  0  0  0  0  0  0  0  0  0
    9.3801   13.4008   21.9513 O   0  0  0  0  0  0  0  0  0  0  0  0
    8.8172   12.6758   24.3389 C   0  0  0  0  0  0  0  0  0  0  0  0
    9.2226   11.3883   24.0310 C   0  0  0  0  0  0  0  0  0  0  0  0
    8.5584   10.3564   24.6659 C   0  0  0  0  0  0  0  0  0  0  0  0
    7.5215   10.6483   25.5484 C   0  0  0  0  0  0  0  0  0  0  0  0
    7.2079   11.9727   25.8012 C   0  0  0  0  0  0  0  0  0  0  0  0
    7.8497   13.0046   25.2301 N   0  0  0  0  0  0  0  0  0  0  0  0
  1  2  3  0
  2  3  1  0
  3  4  1  0
  4  5  1  0
  5  6  1  0
  6  7  1  0
  7  8  2  0
  7  9  2  0
  7 10  1  0
 10 11  2  0
 11 12  1  0
 12 13  2  0
 13 14  1  0
 14 15  2  0
 15 10  1  0
M  END
>  <ref_pdb>  (482) 
A0719a

>  <subsites>  (482) 
1 - Active Site

>  <HIPPO Compound ID>  (482) 
3501

>  <energy_score>  (482) 
-24.958802

>  <fragmenstein_mode>  (482) 
expansion

>  <scratch_subdir>  (482) 
/opt/xchem-fragalysis-2/maxwin/BulkDock/SCRATCH/512193/C15044-P77

>  <smiles>  (482) 
N#CCCCNS(=O)(=O)c1ccccn1

>  <alias>  (482) 
C15044-P77

>  <ref_mols>  (482) 
A4274b,A0719a

>  <inspiration_score>  (482) 
None

>  <tags>  (482) 
BulkDock Fragalysis export,fragmenstein_placed,openbind_a71ev2a_c1_knitwork_impure,openbind_a71ev2a_c1_scaffolds

>  <fragmenstein_outcome>  (482) 
acceptable

>  <fragmenstein_error>  (482) 


>  <distance_score>  (482) 
0.949938

>  <inchikey>  (482) 
YEVKEYTWDZTQPG-UHFFFAOYSA-N

>  <name>  (482) 
C15044-P77

>  <HIPPO Pose ID>  (482) 
340789

>  <Energy>  (482) 
29.332681

>  <exports>  (482) 
['/opt/xchem-fragalysis-2/maxwin/BulkDock/OUTPUTS/openbind_a71ev2a_c1_knitwork_impure_165VXJF.sdf', '/opt/xchem-fragalysis-2/maxwin/BulkDock/OUTPUTS/openbind_a71ev2a_c1_knitwork_impure_1B07QS4.sdf', '/opt/xchem-fragalysis-2/maxwin/BulkDock/OUTPUTS/openbind_a71ev2a_c1_knitwork_impure_1B07X5R.sdf', '/opt/xchem-fragalysis-2/maxwin/openbind-hippo/a71ev2a/openbind_a71ev2a_c1_scaffold_products.sdf', '/opt/xchem-fragalysis-2/maxwin/openbind-hippo/a71ev2a/cycle_01/bulkdock/openbind_a71ev2a_c1_scaffold_products.sdf', '/opt/xchem-fragalysis-2/maxwin/openbind-hippo/a71ev2a/cycle_01/bulkdock/openbind_a71ev2a_c1_scaffolds.sdf']

>  <fragmenstein_runtime>  (482) 
2.842428

$$$$
C8150-P344
     RDKit          3D

 17 17  0  0  0  0  0  0  0  0999 V2000
   11.7882   15.8810   21.9140 C   0  0  0  0  0  0  0  0  0  0  0  0
   10.8636   15.1315   20.9575 C   0  0  0  0  0  0  0  0  0  0  0  0
   11.4360   15.1111   19.5418 C   0  0  0  0  0  0  0  0  0  0  0  0
    9.4739   15.7614   20.9034 C   0  0  0  0  0  0  0  0  0  0  0  0
    8.7399   15.6428   22.1335 N   0  0  0  0  0  0  0  0  0  0  0  0
    7.4330   14.8729   22.4562 C   0  0  0  0  0  0  0  0  0  0  0  0
    6.7934   14.1539   21.7917 O   0  0  0  0  0  0  0  0  0  0  0  0
    7.0425   15.1699   23.8785 C   0  0  0  0  0  0  0  0  0  0  0  0
    8.2572   14.6628   25.0678 S   0  0  0  0  0  0  0  0  0  0  0  0
    7.6367   14.7842   26.3798 O   0  0  0  0  0  0  0  0  0  0  0  0
    9.4740   15.4204   24.8280 O   0  0  0  0  0  0  0  0  0  0  0  0
    8.6468   12.9308   24.8559 C   0  0  0  0  0  0  0  0  0  0  0  0
    7.4908   12.0511   25.3026 C   0  0  0  0  0  0  0  0  0  0  0  0
    7.8365   10.5781   25.1978 C   0  0  0  0  0  0  0  0  0  0  0  0
    8.3946   10.2110   23.9140 N   0  0  0  0  0  0  0  0  0  0  0  0
    9.4991   11.0368   23.4619 C   0  0  0  0  0  0  0  0  0  0  0  0
    9.1667   12.5196   23.4921 C   0  0  0  0  0  0  0  0  0  0  0  0
  1  2  1  0
  2  3  1  0
  2  4  1  0
  4  5  1  0
  5  6  1  0
  6  7  2  0
  6  8  1  0
  8  9  1  0
  9 10  2  0
  9 11  2  0
  9 12  1  0
 12 13  1  0
 13 14  1  0
 14 15  1  0
 15 16  1  0
 16 17  1  0
 17 12  1  0
M  END
>  <ref_pdb>  (483) 
A4274b

>  <subsites>  (483) 
1 - Active Site

>  <HIPPO Compound ID>  (483) 
86322

>  <energy_score>  (483) 
-14.368738

>  <fragmenstein_mode>  (483) 
expansion

>  <scratch_subdir>  (483) 
/opt/xchem-fragalysis-2/maxwin/BulkDock/SCRATCH/512193/C8150-P344

>  <smiles>  (483) 
CC(C)CNC(=O)CS(=O)(=O)C1CCNCC1

>  <alias>  (483) 
C8150-P344

>  <ref_mols>  (483) 
A4274b,A0719a

>  <inspiration_score>  (483) 
None

>  <tags>  (483) 
BulkDock Fragalysis export,fragmenstein_placed,openbind_a71ev2a_c1_knitwork_impure,openbind_a71ev2a_c1_scaffolds

>  <fragmenstein_outcome>  (483) 
acceptable

>  <fragmenstein_error>  (483) 


>  <distance_score>  (483) 
0.888262

>  <inchikey>  (483) 
HXGBIHXJNUTVEU-UHFFFAOYSA-N

>  <name>  (483) 
C8150-P344

>  <HIPPO Pose ID>  (483) 
340823

>  <Energy>  (483) 
-27.017456

>  <exports>  (483) 
['/opt/xchem-fragalysis-2/maxwin/BulkDock/OUTPUTS/openbind_a71ev2a_c1_knitwork_impure_165VXJF.sdf', '/opt/xchem-fragalysis-2/maxwin/BulkDock/OUTPUTS/openbind_a71ev2a_c1_knitwork_impure_1B07QS4.sdf', '/opt/xchem-fragalysis-2/maxwin/BulkDock/OUTPUTS/openbind_a71ev2a_c1_knitwork_impure_1B07X5R.sdf', '/opt/xchem-fragalysis-2/maxwin/openbind-hippo/a71ev2a/openbind_a71ev2a_c1_scaffold_products.sdf', '/opt/xchem-fragalysis-2/maxwin/openbind-hippo/a71ev2a/cycle_01/bulkdock/openbind_a71ev2a_c1_scaffold_products.sdf', '/opt/xchem-fragalysis-2/maxwin/openbind-hippo/a71ev2a/cycle_01/bulkdock/openbind_a71ev2a_c1_scaffolds.sdf']

>  <fragmenstein_runtime>  (483) 
26.588118

$$$$
C14594-P616
     RDKit          3D

 23 24  0  0  0  0  0  0  0  0999 V2000
    6.6468   -9.1649   11.1985 C   0  0  0  0  0  0  0  0  0  0  0  0
    7.8487   -8.5482   10.4743 C   0  0  0  0  0  0  0  0  0  0  0  0
    8.0294   -9.2547    9.1221 C   0  0  0  0  0  0  0  0  0  0  0  0
    8.7223   -8.3763    8.2338 O   0  0  0  0  0  0  0  0  0  0  0  0
    7.6157   -7.0520   10.1989 C   0  0  0  0  0  0  0  0  0  0  0  0
    6.8779   -6.8015    9.0151 O   0  0  0  0  0  0  0  0  0  0  0  0
    9.0054   -8.5913   11.3777 N   0  0  0  0  0  0  0  0  0  0  0  0
   10.2934   -9.4510   11.3191 C   0  0  0  0  0  0  0  0  0  0  0  0
   10.5879  -10.2896   10.6045 O   0  0  0  0  0  0  0  0  0  0  0  0
   11.1085   -8.7649   12.4569 N   0  0  0  0  0  0  0  0  0  0  0  0
   12.4332   -8.9295   12.8383 C   0  0  0  0  0  0  0  0  0  0  0  0
   13.2819   -9.7934   12.1634 C   0  0  0  0  0  0  0  0  0  0  0  0
   14.5822   -9.9057   12.6199 C   0  0  0  0  0  0  0  0  0  0  0  0
   15.0639   -9.2464   13.6961 N   0  0  0  0  0  0  0  0  0  0  0  0
   14.2080   -8.4224   14.3305 C   0  0  0  0  0  0  0  0  0  0  0  0
   14.6299   -7.7349   15.4503 O   0  0  0  0  0  0  0  0  0  0  0  0
   15.5372   -8.4842   16.2774 C   0  0  0  0  0  0  0  0  0  0  0  0
   14.7746   -9.5716   17.0517 C   0  0  0  0  0  0  0  0  0  0  0  0
   15.6547  -10.2668   18.0848 C   0  0  0  0  0  0  0  0  0  0  0  0
   16.2860   -9.2661   19.0464 C   0  0  0  0  0  0  0  0  0  0  0  0
   17.0534   -8.1834   18.2963 C   0  0  0  0  0  0  0  0  0  0  0  0
   16.1773   -7.4913   17.2577 C   0  0  0  0  0  0  0  0  0  0  0  0
   12.9061   -8.2015   13.9240 C   0  0  0  0  0  0  0  0  0  0  0  0
  1  2  1  0
  2  3  1  0
  3  4  1  0
  2  5  1  0
  5  6  1  0
  2  7  1  0
  7  8  1  0
  8  9  2  0
  8 10  1  0
 10 11  1  0
 11 12  2  0
 12 13  1  0
 13 14  2  0
 14 15  1  0
 15 16  1  0
 16 17  1  0
 17 18  1  0
 18 19  1  0
 19 20  1  0
 20 21  1  0
 21 22  1  0
 15 23  2  0
 23 11  1  0
 22 17  1  0
M  END
>  <ref_pdb>  (484) 
A5424b

>  <subsites>  (484) 
1 - Active Site,2 - A3977/A/202/1

>  <HIPPO Compound ID>  (484) 
1402

>  <energy_score>  (484) 
-19.396086

>  <fragmenstein_mode>  (484) 
expansion

>  <scratch_subdir>  (484) 
/opt/xchem-fragalysis-2/maxwin/BulkDock/SCRATCH/512193/C14594-P616

>  <smiles>  (484) 
CC(CO)(CO)NC(=O)Nc1ccnc(OC2CCCCC2)c1

>  <alias>  (484) 
C14594-P616

>  <ref_mols>  (484) 
A5424b,A0395a

>  <inspiration_score>  (484) 
None

>  <tags>  (484) 
BulkDock Fragalysis export,fragmenstein_placed,openbind_a71ev2a_c1_knitwork_impure,openbind_a71ev2a_c1_scaffolds

>  <fragmenstein_outcome>  (484) 
acceptable

>  <fragmenstein_error>  (484) 


>  <distance_score>  (484) 
0.689108

>  <inchikey>  (484) 
MEPCMNAIXFKGGU-UHFFFAOYSA-N

>  <name>  (484) 
C14594-P616

>  <HIPPO Pose ID>  (484) 
341024

>  <Energy>  (484) 
11.637338

>  <exports>  (484) 
['/opt/xchem-fragalysis-2/maxwin/BulkDock/OUTPUTS/openbind_a71ev2a_c1_knitwork_impure_165VXJF.sdf', '/opt/xchem-fragalysis-2/maxwin/BulkDock/OUTPUTS/openbind_a71ev2a_c1_knitwork_impure_1B07QS4.sdf', '/opt/xchem-fragalysis-2/maxwin/BulkDock/OUTPUTS/openbind_a71ev2a_c1_knitwork_impure_1B07X5R.sdf', '/opt/xchem-fragalysis-2/maxwin/openbind-hippo/a71ev2a/openbind_a71ev2a_c1_scaffold_products.sdf', '/opt/xchem-fragalysis-2/maxwin/openbind-hippo/a71ev2a/cycle_01/bulkdock/openbind_a71ev2a_c1_scaffold_products.sdf', '/opt/xchem-fragalysis-2/maxwin/openbind-hippo/a71ev2a/cycle_01/bulkdock/openbind_a71ev2a_c1_scaffolds.sdf']

>  <fragmenstein_runtime>  (484) 
10.462419

$$$$
C26225-P277
     RDKit          3D

 15 15  0  0  0  0  0  0  0  0999 V2000
   12.5471   15.8350   22.5084 C   0  0  0  0  0  0  0  0  0  0  0  0
   12.0309   14.6482   23.3089 C   0  0  0  0  0  0  0  0  0  0  0  0
   10.4896   14.6140   23.4320 C   0  0  0  0  0  0  0  0  0  0  0  0
    9.9508   14.8698   22.0850 C   0  0  0  0  0  0  0  0  0  0  0  0
    9.5830   15.1749   21.0313 N   0  0  0  0  0  0  0  0  0  0  0  0
    9.9483   15.6890   24.4106 C   0  0  0  0  0  0  0  0  0  0  0  0
   10.4431   15.5843   25.8496 C   0  0  0  0  0  0  0  0  0  0  0  0
   10.0722   13.2185   23.9464 C   0  0  0  0  0  0  0  0  0  0  0  0
   10.8585   12.4954   24.4348 O   0  0  0  0  0  0  0  0  0  0  0  0
    8.5165   13.0691   23.7832 N   0  0  0  0  0  0  0  0  0  0  0  0
    7.6576   12.0963   24.2495 N   0  0  0  0  0  0  0  0  0  0  0  0
    8.2958   10.8186   24.5830 C   0  0  0  0  0  0  0  0  0  0  0  0
    7.2215   10.1018   25.3767 C   0  0  0  0  0  0  0  0  0  0  0  0
    6.4803   11.2084   26.1091 C   0  0  0  0  0  0  0  0  0  0  0  0
    6.9689   12.5079   25.4795 C   0  0  0  0  0  0  0  0  0  0  0  0
  1  2  1  0
  2  3  1  0
  3  4  1  0
  4  5  3  0
  3  6  1  0
  6  7  1  0
  3  8  1  0
  8  9  2  0
  8 10  1  0
 10 11  1  0
 11 12  1  0
 12 13  1  0
 13 14  1  0
 14 15  1  0
 15 11  1  0
M  END
>  <ref_pdb>  (485) 
A4032b

>  <subsites>  (485) 
1 - Active Site

>  <HIPPO Compound ID>  (485) 
7155

>  <energy_score>  (485) 
-7.929098

>  <fragmenstein_mode>  (485) 
expansion

>  <scratch_subdir>  (485) 
/opt/xchem-fragalysis-2/maxwin/BulkDock/SCRATCH/512193/C26225-P277

>  <smiles>  (485) 
CCC(C#N)(CC)C(=O)NN1CCCC1

>  <alias>  (485) 
C26225-P277

>  <ref_mols>  (485) 
A1445a,A4032b

>  <inspiration_score>  (485) 
None

>  <tags>  (485) 
BulkDock Fragalysis export,fragmenstein_placed,openbind_a71ev2a_c1_knitwork_impure,openbind_a71ev2a_c1_scaffolds

>  <fragmenstein_outcome>  (485) 
acceptable

>  <fragmenstein_error>  (485) 


>  <distance_score>  (485) 
0.960583

>  <inchikey>  (485) 
JBBGRUAMKVJKBX-UHFFFAOYSA-N

>  <name>  (485) 
C26225-P277

>  <HIPPO Pose ID>  (485) 
342248

>  <Energy>  (485) 
68.177382

>  <exports>  (485) 
['/opt/xchem-fragalysis-2/maxwin/BulkDock/OUTPUTS/openbind_a71ev2a_c1_knitwork_impure_165VXJF.sdf', '/opt/xchem-fragalysis-2/maxwin/BulkDock/OUTPUTS/openbind_a71ev2a_c1_knitwork_impure_1B07QS4.sdf', '/opt/xchem-fragalysis-2/maxwin/BulkDock/OUTPUTS/openbind_a71ev2a_c1_knitwork_impure_1B07X5R.sdf', '/opt/xchem-fragalysis-2/maxwin/openbind-hippo/a71ev2a/openbind_a71ev2a_c1_scaffold_products.sdf', '/opt/xchem-fragalysis-2/maxwin/openbind-hippo/a71ev2a/cycle_01/bulkdock/openbind_a71ev2a_c1_scaffold_products.sdf', '/opt/xchem-fragalysis-2/maxwin/openbind-hippo/a71ev2a/cycle_01/bulkdock/openbind_a71ev2a_c1_scaffolds.sdf']

>  <fragmenstein_runtime>  (485) 
32.643675

$$$$
C7479-P325
     RDKit          3D

 23 24  0  0  0  0  0  0  0  0999 V2000
    3.6120   12.5658   18.0197 C   0  0  0  0  0  0  0  0  0  0  0  0
    3.4540   12.6744   19.5328 C   0  0  0  0  0  0  0  0  0  0  0  0
    2.4279   11.6591   20.0260 C   0  0  0  0  0  0  0  0  0  0  0  0
    3.0704   14.0447   19.9401 C   0  0  0  0  0  0  0  0  0  0  0  0
    2.0679   14.6230   19.2151 O   0  0  0  0  0  0  0  0  0  0  0  0
    1.9461   15.8586   19.7459 C   0  0  0  0  0  0  0  0  0  0  0  0
    2.7529   16.1172   20.7525 N   0  0  0  0  0  0  0  0  0  0  0  0
    3.4540   14.9367   20.9275 C   0  0  0  0  0  0  0  0  0  0  0  0
    4.4101   14.7588   22.0667 C   0  0  0  0  0  0  0  0  0  0  0  0
    5.6625   15.4289   21.7557 N   0  0  0  0  0  0  0  0  0  0  0  0
    7.0884   14.7030   22.2476 S   0  0  0  0  0  0  0  0  0  0  0  0
    6.9186   13.3190   21.8255 O   0  0  0  0  0  0  0  0  0  0  0  0
    8.0752   15.4431   21.4889 O   0  0  0  0  0  0  0  0  0  0  0  0
    6.9683   14.9580   23.7543 N   0  0  0  0  0  0  0  0  0  0  0  0
    8.2991   14.7399   24.4929 S   0  0  2  0  0  0  0  0  0  0  0  0
    8.0279   15.3483   26.1458 C   0  0  0  0  0  0  0  0  0  0  0  0
    9.5655   15.3151   24.0863 O   0  0  0  0  0  0  0  0  0  0  0  0
    8.6179   13.0006   24.8164 C   0  0  0  0  0  0  0  0  0  0  0  0
    9.4942   12.3668   23.7377 C   0  0  0  0  0  0  0  0  0  0  0  0
    9.8455   10.9257   24.0717 C   0  0  0  0  0  0  0  0  0  0  0  0
    8.6556   10.0714   24.4535 C   0  0  0  0  0  0  0  0  0  0  0  0
    7.6861   10.7463   25.4116 C   0  0  0  0  0  0  0  0  0  0  0  0
    7.3524   12.1840   25.0462 C   0  0  0  0  0  0  0  0  0  0  0  0
  1  2  1  0
  2  3  1  0
  2  4  1  0
  4  5  1  0
  5  6  1  0
  6  7  2  0
  7  8  1  0
  8  9  1  0
  9 10  1  0
 10 11  1  0
 11 12  2  0
 11 13  2  0
 11 14  1  0
 14 15  2  0
 15 16  1  1
 15 17  2  0
 15 18  1  0
 18 19  1  0
 19 20  1  0
 20 21  1  0
 21 22  1  0
 22 23  1  0
  8  4  2  0
 23 18  1  0
M  END
>  <ref_pdb>  (486) 
A4368a

>  <subsites>  (486) 
1 - Active Site

>  <HIPPO Compound ID>  (486) 
17682

>  <energy_score>  (486) 
-243.257513

>  <fragmenstein_mode>  (486) 
expansion

>  <scratch_subdir>  (486) 
/opt/xchem-fragalysis-2/maxwin/BulkDock/SCRATCH/512193/C7479-P325

>  <smiles>  (486) 
CC(C)c1ocnc1CNS(=O)(=O)N=[S@](C)(=O)C1CCCCC1

>  <alias>  (486) 
C7479-P325

>  <ref_mols>  (486) 
A3623a,A4368a

>  <inspiration_score>  (486) 
None

>  <tags>  (486) 
BulkDock Fragalysis export,fragmenstein_placed,openbind_a71ev2a_c1_knitwork_impure,openbind_a71ev2a_c1_scaffolds

>  <fragmenstein_outcome>  (486) 
acceptable

>  <fragmenstein_error>  (486) 


>  <distance_score>  (486) 
0.89557

>  <inchikey>  (486) 
BVGBDOZXIVOWDC-UHFFFAOYSA-N

>  <name>  (486) 
C7479-P325

>  <HIPPO Pose ID>  (486) 
343210

>  <Energy>  (486) 
-246.81178

>  <exports>  (486) 
['/opt/xchem-fragalysis-2/maxwin/BulkDock/OUTPUTS/openbind_a71ev2a_c1_knitwork_impure_165VXJF.sdf', '/opt/xchem-fragalysis-2/maxwin/BulkDock/OUTPUTS/openbind_a71ev2a_c1_knitwork_impure_1B07QS4.sdf', '/opt/xchem-fragalysis-2/maxwin/BulkDock/OUTPUTS/openbind_a71ev2a_c1_knitwork_impure_1B07X5R.sdf', '/opt/xchem-fragalysis-2/maxwin/openbind-hippo/a71ev2a/openbind_a71ev2a_c1_scaffold_products.sdf', '/opt/xchem-fragalysis-2/maxwin/openbind-hippo/a71ev2a/cycle_01/bulkdock/openbind_a71ev2a_c1_scaffold_products.sdf', '/opt/xchem-fragalysis-2/maxwin/openbind-hippo/a71ev2a/cycle_01/bulkdock/openbind_a71ev2a_c1_scaffolds.sdf']

>  <fragmenstein_runtime>  (486) 
4.629684

$$$$
C10705-P198
     RDKit          3D

 16 17  0  0  0  0  0  0  0  0999 V2000
    9.5909   11.1360   23.0228 C   0  0  0  0  0  0  0  0  0  0  0  0
    9.4076   10.2438   24.0923 O   0  0  0  0  0  0  0  0  0  0  0  0
    8.0995    9.7244   24.2372 C   0  0  0  0  0  0  0  0  0  0  0  0
    7.1496   10.6604   24.9642 C   0  0  0  0  0  0  0  0  0  0  0  0
    7.2437   12.0393   25.0098 C   0  0  0  0  0  0  0  0  0  0  0  0
    5.9789   12.7954   25.8669 S   0  0  0  0  0  0  0  0  0  0  0  0
    5.2886   11.2936   26.2920 C   0  0  0  0  0  0  0  0  0  0  0  0
    4.1207   11.2135   27.1797 C   0  0  0  0  0  0  0  0  0  0  0  0
    3.9937   10.3018   27.8924 O   0  0  0  0  0  0  0  0  0  0  0  0
    3.2179   12.4398   26.9590 N   0  0  0  0  0  0  0  0  0  0  0  0
    2.0174   12.8500   27.6361 C   0  0  2  0  0  0  0  0  0  0  0  0
    1.0576   13.5481   26.6809 C   0  0  0  0  0  0  0  0  0  0  0  0
    2.4050   13.7572   28.7702 C   0  0  0  0  0  0  0  0  0  0  0  0
    1.5717   13.8140   30.0265 C   0  0  0  0  0  0  0  0  0  0  0  0
    2.9335   13.1778   30.0594 C   0  0  0  0  0  0  0  0  0  0  0  0
    6.0048   10.2473   25.7364 C   0  0  0  0  0  0  0  0  0  0  0  0
  1  2  1  0
  2  3  1  0
  3  4  1  0
  4  5  2  0
  5  6  1  0
  6  7  1  0
  7  8  1  0
  8  9  2  0
  8 10  1  0
 10 11  1  0
 11 12  1  6
 11 13  1  0
 13 14  1  0
 14 15  1  0
  7 16  2  0
 16  4  1  0
 15 13  1  0
M  END
>  <ref_pdb>  (487) 
A3618a

>  <subsites>  (487) 
1 - Active Site

>  <HIPPO Compound ID>  (487) 
973

>  <energy_score>  (487) 
-11.301445

>  <fragmenstein_mode>  (487) 
expansion

>  <scratch_subdir>  (487) 
/opt/xchem-fragalysis-2/maxwin/BulkDock/SCRATCH/512193/C10705-P198

>  <smiles>  (487) 
COCc1csc(C(=O)N[C@H](C)C2CC2)c1

>  <alias>  (487) 
C10705-P198

>  <ref_mols>  (487) 
A4237b,A3618a

>  <inspiration_score>  (487) 
None

>  <tags>  (487) 
BulkDock Fragalysis export,fragmenstein_placed,openbind_a71ev2a_c1_knitwork_impure,openbind_a71ev2a_c1_scaffolds

>  <fragmenstein_outcome>  (487) 
acceptable

>  <fragmenstein_error>  (487) 


>  <distance_score>  (487) 
0.738285

>  <inchikey>  (487) 
UERDZVKTYWOYRH-UHFFFAOYSA-N

>  <name>  (487) 
C10705-P198

>  <HIPPO Pose ID>  (487) 
343358

>  <Energy>  (487) 
31.087386

>  <exports>  (487) 
['/opt/xchem-fragalysis-2/maxwin/BulkDock/OUTPUTS/openbind_a71ev2a_c1_knitwork_impure_165VXJF.sdf', '/opt/xchem-fragalysis-2/maxwin/BulkDock/OUTPUTS/openbind_a71ev2a_c1_knitwork_impure_1B07QS4.sdf', '/opt/xchem-fragalysis-2/maxwin/BulkDock/OUTPUTS/openbind_a71ev2a_c1_knitwork_impure_1B07X5R.sdf', '/opt/xchem-fragalysis-2/maxwin/openbind-hippo/a71ev2a/openbind_a71ev2a_c1_scaffold_products.sdf', '/opt/xchem-fragalysis-2/maxwin/openbind-hippo/a71ev2a/cycle_01/bulkdock/openbind_a71ev2a_c1_scaffold_products.sdf', '/opt/xchem-fragalysis-2/maxwin/openbind-hippo/a71ev2a/cycle_01/bulkdock/openbind_a71ev2a_c1_scaffolds.sdf']

>  <fragmenstein_runtime>  (487) 
1.964708

$$$$
C7529-P324
     RDKit          3D

 13 13  0  0  0  0  0  0  0  0999 V2000
   10.8035   12.9084   24.9180 O   0  0  0  0  0  0  0  0  0  0  0  0
    9.7250   12.9928   24.4531 C   0  0  0  0  0  0  0  0  0  0  0  0
    9.0442   14.1757   23.6577 N   0  0  0  0  0  0  0  0  0  0  0  0
    9.5064   15.4609   23.3778 N   0  0  0  0  0  0  0  0  0  0  0  0
   10.8987   15.7245   23.7663 C   0  0  0  0  0  0  0  0  0  0  0  0
   11.9414   15.1391   22.8138 C   0  0  0  0  0  0  0  0  0  0  0  0
   11.6929   15.5942   21.3823 C   0  0  0  0  0  0  0  0  0  0  0  0
   10.2585   15.2788   20.9793 C   0  0  0  0  0  0  0  0  0  0  0  0
    9.2602   15.8635   21.9786 C   0  0  0  0  0  0  0  0  0  0  0  0
    8.6676   11.8616   24.5438 C   0  0  0  0  0  0  0  0  0  0  0  0
    8.4986   11.4113   25.8113 F   0  0  0  0  0  0  0  0  0  0  0  0
    7.4324   12.2702   24.1382 F   0  0  0  0  0  0  0  0  0  0  0  0
    9.1844   10.4909   23.5706 Cl  0  0  0  0  0  0  0  0  0  0  0  0
  1  2  2  0
  2  3  1  0
  3  4  1  0
  4  5  1  0
  5  6  1  0
  6  7  1  0
  7  8  1  0
  8  9  1  0
  2 10  1  0
 10 11  1  0
 10 12  1  0
 10 13  1  0
  9  4  1  0
M  END
>  <ref_pdb>  (488) 
A4365b

>  <subsites>  (488) 
1 - Active Site

>  <HIPPO Compound ID>  (488) 
27254

>  <energy_score>  (488) 
-5.658589

>  <fragmenstein_mode>  (488) 
expansion

>  <scratch_subdir>  (488) 
/opt/xchem-fragalysis-2/maxwin/BulkDock/SCRATCH/512193/C7529-P324

>  <smiles>  (488) 
O=C(NN1CCCCC1)C(F)(F)Cl

>  <alias>  (488) 
C7529-P324

>  <ref_mols>  (488) 
A1445a,A4365b

>  <inspiration_score>  (488) 
None

>  <tags>  (488) 
BulkDock Fragalysis export,fragmenstein_placed,openbind_a71ev2a_c1_knitwork_impure,openbind_a71ev2a_c1_scaffolds

>  <fragmenstein_outcome>  (488) 
acceptable

>  <fragmenstein_error>  (488) 


>  <distance_score>  (488) 
0.944252

>  <inchikey>  (488) 
BVTPDBRQZWYODH-UHFFFAOYSA-N

>  <name>  (488) 
C7529-P324

>  <HIPPO Pose ID>  (488) 
343633

>  <Energy>  (488) 
129.69092

>  <exports>  (488) 
['/opt/xchem-fragalysis-2/maxwin/BulkDock/OUTPUTS/openbind_a71ev2a_c1_knitwork_impure_165VXJF.sdf', '/opt/xchem-fragalysis-2/maxwin/BulkDock/OUTPUTS/openbind_a71ev2a_c1_knitwork_impure_1B07QS4.sdf', '/opt/xchem-fragalysis-2/maxwin/BulkDock/OUTPUTS/openbind_a71ev2a_c1_knitwork_impure_1B07X5R.sdf', '/opt/xchem-fragalysis-2/maxwin/openbind-hippo/a71ev2a/openbind_a71ev2a_c1_scaffold_products.sdf', '/opt/xchem-fragalysis-2/maxwin/openbind-hippo/a71ev2a/cycle_01/bulkdock/openbind_a71ev2a_c1_scaffold_products.sdf', '/opt/xchem-fragalysis-2/maxwin/openbind-hippo/a71ev2a/cycle_01/bulkdock/openbind_a71ev2a_c1_scaffolds.sdf']

>  <fragmenstein_runtime>  (488) 
2.1294

$$$$
C15278-P321
     RDKit          3D

 17 17  0  0  0  0  0  0  0  0999 V2000
   10.7791   15.4114   19.1495 C   0  0  0  0  0  0  0  0  0  0  0  0
   11.1808   14.9022   20.5193 C   0  0  0  0  0  0  0  0  0  0  0  0
   11.0787   16.2376   21.7382 S   0  0  0  0  0  0  0  0  0  0  0  0
   11.7951   15.4081   23.1811 C   0  0  0  0  0  0  0  0  0  0  0  0
   11.0947   14.1229   23.6047 C   0  0  0  0  0  0  0  0  0  0  0  0
   11.6796   13.2135   24.0487 O   0  0  0  0  0  0  0  0  0  0  0  0
    9.5696   14.3446   23.4208 N   0  0  0  0  0  0  0  0  0  0  0  0
    8.4597   13.4558   23.6570 C   0  0  1  0  0  0  0  0  0  0  0  0
    8.5680   12.8277   25.0419 C   0  0  0  0  0  0  0  0  0  0  0  0
    7.1082   14.1582   23.5105 C   0  0  0  0  0  0  0  0  0  0  0  0
    6.8301   14.7421   22.1240 C   0  0  0  0  0  0  0  0  0  0  0  0
    5.3636   15.0305   21.9257 C   0  0  0  0  0  0  0  0  0  0  0  0
    4.5031   14.1113   21.3208 C   0  0  0  0  0  0  0  0  0  0  0  0
    3.1506   14.4051   21.1741 C   0  0  0  0  0  0  0  0  0  0  0  0
    2.6912   15.6180   21.6472 C   0  0  0  0  0  0  0  0  0  0  0  0
    3.4846   16.5370   22.2352 N   0  0  0  0  0  0  0  0  0  0  0  0
    4.7976   16.2200   22.3672 C   0  0  0  0  0  0  0  0  0  0  0  0
  1  2  1  0
  2  3  1  0
  3  4  1  0
  4  5  1  0
  5  6  2  0
  5  7  1  0
  7  8  1  0
  8  9  1  1
  8 10  1  0
 10 11  1  0
 11 12  1  0
 12 13  2  0
 13 14  1  0
 14 15  2  0
 15 16  1  0
 16 17  2  0
 17 12  1  0
M  END
>  <ref_pdb>  (489) 
A4350a

>  <subsites>  (489) 
1 - Active Site,5 - A3181/A/202/1

>  <HIPPO Compound ID>  (489) 
137292

>  <energy_score>  (489) 
-23.922536

>  <fragmenstein_mode>  (489) 
expansion

>  <scratch_subdir>  (489) 
/opt/xchem-fragalysis-2/maxwin/BulkDock/SCRATCH/512193/C15278-P321

>  <smiles>  (489) 
CCSCC(=O)N[C@@H](C)CCc1cccnc1

>  <alias>  (489) 
C15278-P321

>  <ref_mols>  (489) 
A4350a,A3181b

>  <inspiration_score>  (489) 
None

>  <tags>  (489) 
BulkDock Fragalysis export,fragmenstein_placed,openbind_a71ev2a_c1_knitwork_impure,openbind_a71ev2a_c1_scaffolds

>  <fragmenstein_outcome>  (489) 
acceptable

>  <fragmenstein_error>  (489) 


>  <distance_score>  (489) 
0.973363

>  <inchikey>  (489) 
VEAOSVDTZUAADO-UHFFFAOYSA-N

>  <name>  (489) 
C15278-P321

>  <HIPPO Pose ID>  (489) 
343815

>  <Energy>  (489) 
44.692566

>  <exports>  (489) 
['/opt/xchem-fragalysis-2/maxwin/BulkDock/OUTPUTS/openbind_a71ev2a_c1_knitwork_impure_165VXJF.sdf', '/opt/xchem-fragalysis-2/maxwin/BulkDock/OUTPUTS/openbind_a71ev2a_c1_knitwork_impure_1B07QS4.sdf', '/opt/xchem-fragalysis-2/maxwin/BulkDock/OUTPUTS/openbind_a71ev2a_c1_knitwork_impure_1B07X5R.sdf', '/opt/xchem-fragalysis-2/maxwin/openbind-hippo/a71ev2a/openbind_a71ev2a_c1_scaffold_products.sdf', '/opt/xchem-fragalysis-2/maxwin/openbind-hippo/a71ev2a/cycle_01/bulkdock/openbind_a71ev2a_c1_scaffold_products.sdf', '/opt/xchem-fragalysis-2/maxwin/openbind-hippo/a71ev2a/cycle_01/bulkdock/openbind_a71ev2a_c1_scaffolds.sdf']

>  <fragmenstein_runtime>  (489) 
11.310758

$$$$
C7646-P558
     RDKit          3D

 13 14  0  0  0  0  0  0  0  0999 V2000
    5.7839   15.6218   22.0236 N   0  0  0  0  0  0  0  0  0  0  0  0
    7.2584   14.9170   22.3876 S   0  0  0  0  0  0  0  0  0  0  0  0
    8.2822   15.7182   21.7672 O   0  0  0  0  0  0  0  0  0  0  0  0
    7.1077   13.5088   22.0935 O   0  0  0  0  0  0  0  0  0  0  0  0
    7.3092   15.2092   24.1538 C   0  0  0  0  0  0  0  0  0  0  0  0
    8.6541   14.8798   24.7981 C   0  0  0  0  0  0  0  0  0  0  0  0
    9.3632   13.5960   24.3492 C   0  0  0  0  0  0  0  0  0  0  0  0
    8.8573   12.3330   24.8522 N   0  0  0  0  0  0  0  0  0  0  0  0
    9.2455   11.2064   23.9794 C   0  0  0  0  0  0  0  0  0  0  0  0
    8.2902   10.1267   24.3642 C   0  0  1  0  0  0  0  0  0  0  0  0
    7.9177    9.8117   25.7785 C   0  0  0  0  0  0  0  0  0  0  0  0
    7.1357   10.7923   25.0248 C   0  0  1  0  0  0  0  0  0  0  0  0
    7.4211   12.2416   25.1096 C   0  0  0  0  0  0  0  0  0  0  0  0
  1  2  1  0
  2  3  2  0
  2  4  2  0
  2  5  1  0
  5  6  1  0
  6  7  1  0
  7  8  1  0
  8  9  1  0
 10  9  1  1
 10 11  1  0
 12 11  1  1
 12 13  1  0
 13  8  1  0
 12 10  1  0
M  END
>  <ref_pdb>  (490) 
A5079b

>  <subsites>  (490) 
1 - Active Site

>  <HIPPO Compound ID>  (490) 
7469

>  <energy_score>  (490) 
-73.631304

>  <fragmenstein_mode>  (490) 
expansion

>  <scratch_subdir>  (490) 
/opt/xchem-fragalysis-2/maxwin/BulkDock/SCRATCH/512193/C7646-P558

>  <smiles>  (490) 
NS(=O)(=O)CCCN1C[C@H]2C[C@H]2C1

>  <alias>  (490) 
C7646-P558

>  <ref_mols>  (490) 
A0719a,A5079b

>  <inspiration_score>  (490) 
None

>  <tags>  (490) 
BulkDock Fragalysis export,fragmenstein_placed,openbind_a71ev2a_c1_knitwork_impure,openbind_a71ev2a_c1_scaffolds

>  <fragmenstein_outcome>  (490) 
acceptable

>  <fragmenstein_error>  (490) 


>  <distance_score>  (490) 
0.95507

>  <inchikey>  (490) 
ZJUWFSGBSHLZFO-UHFFFAOYSA-N

>  <name>  (490) 
C7646-P558

>  <HIPPO Pose ID>  (490) 
345050

>  <Energy>  (490) 
-52.437898

>  <exports>  (490) 
['/opt/xchem-fragalysis-2/maxwin/BulkDock/OUTPUTS/openbind_a71ev2a_c1_knitwork_impure_165VXJF.sdf', '/opt/xchem-fragalysis-2/maxwin/BulkDock/OUTPUTS/openbind_a71ev2a_c1_knitwork_impure_1B07QS4.sdf', '/opt/xchem-fragalysis-2/maxwin/BulkDock/OUTPUTS/openbind_a71ev2a_c1_knitwork_impure_1B07X5R.sdf', '/opt/xchem-fragalysis-2/maxwin/openbind-hippo/a71ev2a/openbind_a71ev2a_c1_scaffold_products.sdf', '/opt/xchem-fragalysis-2/maxwin/openbind-hippo/a71ev2a/cycle_01/bulkdock/openbind_a71ev2a_c1_scaffold_products.sdf', '/opt/xchem-fragalysis-2/maxwin/openbind-hippo/a71ev2a/cycle_01/bulkdock/openbind_a71ev2a_c1_scaffolds.sdf']

>  <fragmenstein_runtime>  (490) 
5.922378

$$$$
C9546-P405
     RDKit          3D

  9  9  0  0  0  0  0  0  0  0999 V2000
   10.2514   14.3141   26.0220 O   0  0  0  0  0  0  0  0  0  0  0  0
    9.1769   14.8125   26.3380 C   0  0  0  0  0  0  0  0  0  0  0  0
    7.8953   14.6933   25.5482 C   0  0  0  0  0  0  0  0  0  0  0  0
    8.0417   13.8646   24.2795 C   0  0  0  0  0  0  0  0  0  0  0  0
    8.1123   12.3865   24.5107 C   0  0  0  0  0  0  0  0  0  0  0  0
    7.1306   11.5897   25.1827 C   0  0  0  0  0  0  0  0  0  0  0  0
    7.3537   10.2819   25.2721 N   0  0  0  0  0  0  0  0  0  0  0  0
    8.7836    9.9480   24.4854 S   0  0  0  0  0  0  0  0  0  0  0  0
    9.1285   11.5640   24.0610 C   0  0  0  0  0  0  0  0  0  0  0  0
  1  2  2  0
  2  3  1  0
  3  4  1  0
  4  5  1  0
  5  6  1  0
  6  7  2  0
  7  8  1  0
  8  9  1  0
  9  5  2  0
M  END
>  <ref_pdb>  (491) 
A4570a

>  <subsites>  (491) 
1 - Active Site

>  <HIPPO Compound ID>  (491) 
15823

>  <energy_score>  (491) 
-23.664939

>  <fragmenstein_mode>  (491) 
expansion

>  <scratch_subdir>  (491) 
/opt/xchem-fragalysis-2/maxwin/BulkDock/SCRATCH/512193/C9546-P405

>  <smiles>  (491) 
O=CCCc1cnsc1

>  <alias>  (491) 
C9546-P405

>  <ref_mols>  (491) 
A0556a,A4570a

>  <inspiration_score>  (491) 
None

>  <tags>  (491) 
BulkDock Fragalysis export,fragmenstein_placed,openbind_a71ev2a_c1_knitwork_impure,openbind_a71ev2a_c1_scaffolds

>  <fragmenstein_outcome>  (491) 
acceptable

>  <fragmenstein_error>  (491) 


>  <distance_score>  (491) 
0.728803

>  <inchikey>  (491) 
DPUSSHZYAUIWGW-UHFFFAOYSA-N

>  <name>  (491) 
C9546-P405

>  <HIPPO Pose ID>  (491) 
345379

>  <Energy>  (491) 
-1.325763

>  <exports>  (491) 
['/opt/xchem-fragalysis-2/maxwin/BulkDock/OUTPUTS/openbind_a71ev2a_c1_knitwork_impure_165VXJF.sdf', '/opt/xchem-fragalysis-2/maxwin/BulkDock/OUTPUTS/openbind_a71ev2a_c1_knitwork_impure_1B07QS4.sdf', '/opt/xchem-fragalysis-2/maxwin/BulkDock/OUTPUTS/openbind_a71ev2a_c1_knitwork_impure_1B07X5R.sdf', '/opt/xchem-fragalysis-2/maxwin/openbind-hippo/a71ev2a/openbind_a71ev2a_c1_scaffold_products.sdf', '/opt/xchem-fragalysis-2/maxwin/openbind-hippo/a71ev2a/cycle_01/bulkdock/openbind_a71ev2a_c1_scaffold_products.sdf', '/opt/xchem-fragalysis-2/maxwin/openbind-hippo/a71ev2a/cycle_01/bulkdock/openbind_a71ev2a_c1_scaffolds.sdf']

>  <fragmenstein_runtime>  (491) 
0.677789

$$$$
C9547-P405
     RDKit          3D

  9  9  0  0  0  0  0  0  0  0999 V2000
    7.5554   16.1605   25.0487 C   0  0  0  0  0  0  0  0  0  0  0  0
    7.3194   14.6726   25.2500 C   0  0  0  0  0  0  0  0  0  0  0  0
    8.4356   13.8210   24.6664 C   0  0  0  0  0  0  0  0  0  0  0  0
    9.4483   14.3248   24.1855 O   0  0  0  0  0  0  0  0  0  0  0  0
    8.2860   12.3695   24.7155 C   0  0  0  0  0  0  0  0  0  0  0  0
    7.2532   11.6062   25.3424 C   0  0  0  0  0  0  0  0  0  0  0  0
    7.3445   10.2798   25.2824 N   0  0  0  0  0  0  0  0  0  0  0  0
    8.7180    9.8941   24.4215 S   0  0  0  0  0  0  0  0  0  0  0  0
    9.1880   11.5048   24.1218 C   0  0  0  0  0  0  0  0  0  0  0  0
  1  2  1  0
  2  3  1  0
  3  4  2  0
  3  5  1  0
  5  6  1  0
  6  7  2  0
  7  8  1  0
  8  9  1  0
  9  5  2  0
M  END
>  <ref_pdb>  (492) 
A4570a

>  <subsites>  (492) 
1 - Active Site

>  <HIPPO Compound ID>  (492) 
6528

>  <energy_score>  (492) 
-18.852832

>  <fragmenstein_mode>  (492) 
expansion

>  <scratch_subdir>  (492) 
/opt/xchem-fragalysis-2/maxwin/BulkDock/SCRATCH/512193/C9547-P405

>  <smiles>  (492) 
CCC(=O)c1cnsc1

>  <alias>  (492) 
C9547-P405

>  <ref_mols>  (492) 
A0556a,A4570a

>  <inspiration_score>  (492) 
None

>  <tags>  (492) 
BulkDock Fragalysis export,fragmenstein_placed,openbind_a71ev2a_c1_knitwork_impure,openbind_a71ev2a_c1_scaffolds

>  <fragmenstein_outcome>  (492) 
acceptable

>  <fragmenstein_error>  (492) 


>  <distance_score>  (492) 
0.681213

>  <inchikey>  (492) 
IGFLHWNYLMXGMG-UHFFFAOYSA-N

>  <name>  (492) 
C9547-P405

>  <HIPPO Pose ID>  (492) 
345381

>  <Energy>  (492) 
2.462323

>  <exports>  (492) 
['/opt/xchem-fragalysis-2/maxwin/BulkDock/OUTPUTS/openbind_a71ev2a_c1_knitwork_impure_165VXJF.sdf', '/opt/xchem-fragalysis-2/maxwin/BulkDock/OUTPUTS/openbind_a71ev2a_c1_knitwork_impure_1B07QS4.sdf', '/opt/xchem-fragalysis-2/maxwin/BulkDock/OUTPUTS/openbind_a71ev2a_c1_knitwork_impure_1B07X5R.sdf', '/opt/xchem-fragalysis-2/maxwin/openbind-hippo/a71ev2a/openbind_a71ev2a_c1_scaffold_products.sdf', '/opt/xchem-fragalysis-2/maxwin/openbind-hippo/a71ev2a/cycle_01/bulkdock/openbind_a71ev2a_c1_scaffold_products.sdf', '/opt/xchem-fragalysis-2/maxwin/openbind-hippo/a71ev2a/cycle_01/bulkdock/openbind_a71ev2a_c1_scaffolds.sdf']

>  <fragmenstein_runtime>  (492) 
0.625934

$$$$
C9548-P405
     RDKit          3D

  9  9  0  0  0  0  0  0  0  0999 V2000
    6.8636   13.3510   22.3123 O   0  0  0  0  0  0  0  0  0  0  0  0
    6.5102   14.1713   23.1558 C   0  0  0  0  0  0  0  0  0  0  0  0
    7.2288   14.4278   24.4653 C   0  0  0  0  0  0  0  0  0  0  0  0
    8.4682   13.5573   24.6487 C   0  0  0  0  0  0  0  0  0  0  0  0
    8.1818   12.1047   24.8068 C   0  0  0  0  0  0  0  0  0  0  0  0
    7.1434   11.4721   25.5244 C   0  0  0  0  0  0  0  0  0  0  0  0
    7.1908   10.1433   25.4261 N   0  0  0  0  0  0  0  0  0  0  0  0
    8.2933    9.8773   24.6274 O   0  0  0  0  0  0  0  0  0  0  0  0
    8.8716   11.0469   24.2612 C   0  0  0  0  0  0  0  0  0  0  0  0
  1  2  2  0
  2  3  1  0
  3  4  1  0
  4  5  1  0
  5  6  1  0
  6  7  2  0
  7  8  1  0
  8  9  1  0
  9  5  2  0
M  END
>  <ref_pdb>  (493) 
A4570a

>  <subsites>  (493) 
1 - Active Site

>  <HIPPO Compound ID>  (493) 
16512

>  <energy_score>  (493) 
-13.757114

>  <fragmenstein_mode>  (493) 
expansion

>  <scratch_subdir>  (493) 
/opt/xchem-fragalysis-2/maxwin/BulkDock/SCRATCH/512193/C9548-P405

>  <smiles>  (493) 
O=CCCc1cnoc1

>  <alias>  (493) 
C9548-P405

>  <ref_mols>  (493) 
A0556a,A4570a

>  <inspiration_score>  (493) 
None

>  <tags>  (493) 
BulkDock Fragalysis export,fragmenstein_placed,openbind_a71ev2a_c1_knitwork_impure,openbind_a71ev2a_c1_scaffolds

>  <fragmenstein_outcome>  (493) 
acceptable

>  <fragmenstein_error>  (493) 


>  <distance_score>  (493) 
0.671592

>  <inchikey>  (493) 
PGILFXQYSGPPJO-UHFFFAOYSA-N

>  <name>  (493) 
C9548-P405

>  <HIPPO Pose ID>  (493) 
345383

>  <Energy>  (493) 
-2.387267

>  <exports>  (493) 
['/opt/xchem-fragalysis-2/maxwin/BulkDock/OUTPUTS/openbind_a71ev2a_c1_knitwork_impure_165VXJF.sdf', '/opt/xchem-fragalysis-2/maxwin/BulkDock/OUTPUTS/openbind_a71ev2a_c1_knitwork_impure_1B07QS4.sdf', '/opt/xchem-fragalysis-2/maxwin/BulkDock/OUTPUTS/openbind_a71ev2a_c1_knitwork_impure_1B07X5R.sdf', '/opt/xchem-fragalysis-2/maxwin/openbind-hippo/a71ev2a/openbind_a71ev2a_c1_scaffold_products.sdf', '/opt/xchem-fragalysis-2/maxwin/openbind-hippo/a71ev2a/cycle_01/bulkdock/openbind_a71ev2a_c1_scaffold_products.sdf', '/opt/xchem-fragalysis-2/maxwin/openbind-hippo/a71ev2a/cycle_01/bulkdock/openbind_a71ev2a_c1_scaffolds.sdf']

>  <fragmenstein_runtime>  (493) 
0.574765

$$$$
C8161-P191
     RDKit          3D

 17 17  0  0  0  0  0  0  0  0999 V2000
   11.6788   15.1452   25.6903 C   0  0  0  0  0  0  0  0  0  0  0  0
   10.2837   14.8090   25.1577 C   0  0  0  0  0  0  0  0  0  0  0  0
   10.1339   14.3518   23.6591 C   0  0  1  0  0  0  0  0  0  0  0  0
   11.2856   13.4008   23.3422 C   0  0  0  0  0  0  0  0  0  0  0  0
    8.7453   13.5985   23.5388 C   0  0  2  0  0  0  0  0  0  0  0  0
    7.7800   14.1778   24.4487 O   0  0  0  0  0  0  0  0  0  0  0  0
    8.8035   12.1161   23.8726 C   0  0  0  0  0  0  0  0  0  0  0  0
    7.4746   11.7192   24.2251 O   0  0  0  0  0  0  0  0  0  0  0  0
    7.4827   10.6612   25.1692 C   0  0  0  0  0  0  0  0  0  0  0  0
    6.2139   10.7090   25.9986 C   0  0  0  0  0  0  0  0  0  0  0  0
    7.7569    9.3623   24.4485 C   0  0  0  0  0  0  0  0  0  0  0  0
   10.0720   15.4664   22.6875 N   0  0  0  0  0  0  0  0  0  0  0  0
   10.8178   16.6866   22.9279 C   0  0  0  0  0  0  0  0  0  0  0  0
   12.2579   16.6384   22.4398 C   0  0  0  0  0  0  0  0  0  0  0  0
   12.2841   16.3160   20.9587 C   0  0  0  0  0  0  0  0  0  0  0  0
   11.4787   15.0793   20.6198 C   0  0  0  0  0  0  0  0  0  0  0  0
   10.0860   15.1302   21.2520 C   0  0  0  0  0  0  0  0  0  0  0  0
  1  2  1  0
  2  3  1  0
  3  4  1  6
  3  5  1  0
  5  6  1  1
  5  7  1  0
  7  8  1  0
  8  9  1  0
  9 10  1  0
  9 11  1  0
  3 12  1  0
 12 13  1  0
 13 14  1  0
 14 15  1  0
 15 16  1  0
 16 17  1  0
 17 12  1  0
M  END
>  <ref_pdb>  (494) 
A3509b

>  <subsites>  (494) 
1 - Active Site,5 - A3181/A/202/1

>  <HIPPO Compound ID>  (494) 
31046

>  <energy_score>  (494) 
-79.796653

>  <fragmenstein_mode>  (494) 
expansion

>  <scratch_subdir>  (494) 
/opt/xchem-fragalysis-2/maxwin/BulkDock/SCRATCH/512194/C8161-P191

>  <smiles>  (494) 
CC[C@@](C)([C@H](O)COC(C)C)N1CCCCC1

>  <alias>  (494) 
C8161-P191

>  <ref_mols>  (494) 
A0719a,A0719b,A3509b

>  <inspiration_score>  (494) 
None

>  <tags>  (494) 
BulkDock Fragalysis export,fragmenstein_placed,openbind_a71ev2a_c1_knitwork_impure,openbind_a71ev2a_c1_scaffolds

>  <fragmenstein_outcome>  (494) 
acceptable

>  <fragmenstein_error>  (494) 


>  <distance_score>  (494) 
0.972832

>  <inchikey>  (494) 
JBQKPGDVXBNGRB-UHFFFAOYSA-N

>  <name>  (494) 
C8161-P191

>  <HIPPO Pose ID>  (494) 
346705

>  <Energy>  (494) 
87.718138

>  <exports>  (494) 
['/opt/xchem-fragalysis-2/maxwin/BulkDock/OUTPUTS/openbind_a71ev2a_c1_knitwork_impure_165VXJF.sdf', '/opt/xchem-fragalysis-2/maxwin/BulkDock/OUTPUTS/openbind_a71ev2a_c1_knitwork_impure_1B07QS4.sdf', '/opt/xchem-fragalysis-2/maxwin/BulkDock/OUTPUTS/openbind_a71ev2a_c1_knitwork_impure_1B07X5R.sdf', '/opt/xchem-fragalysis-2/maxwin/openbind-hippo/a71ev2a/openbind_a71ev2a_c1_scaffold_products.sdf', '/opt/xchem-fragalysis-2/maxwin/openbind-hippo/a71ev2a/cycle_01/bulkdock/openbind_a71ev2a_c1_scaffold_products.sdf', '/opt/xchem-fragalysis-2/maxwin/openbind-hippo/a71ev2a/cycle_01/bulkdock/openbind_a71ev2a_c1_scaffolds.sdf']

>  <fragmenstein_runtime>  (494) 
12.601414

$$$$
C15027-P151
     RDKit          3D

 13 13  0  0  0  0  0  0  0  0999 V2000
   11.6782   14.9884   22.8637 C   0  0  0  0  0  0  0  0  0  0  0  0
   10.5535   14.9463   23.5887 C   0  0  0  0  0  0  0  0  0  0  0  0
    9.1779   15.1268   23.0171 C   0  0  0  0  0  0  0  0  0  0  0  0
    8.2761   13.9065   23.1633 C   0  0  0  0  0  0  0  0  0  0  0  0
    7.7948   13.3499   22.1681 O   0  0  0  0  0  0  0  0  0  0  0  0
    7.8639   13.4627   24.5798 C   0  0  2  0  0  0  0  0  0  0  0  0
    8.4957   14.1030   25.6712 O   0  0  0  0  0  0  0  0  0  0  0  0
    7.9359   11.9649   24.8090 C   0  0  0  0  0  0  0  0  0  0  0  0
    7.0311   11.3841   25.7094 C   0  0  0  0  0  0  0  0  0  0  0  0
    7.0228   10.0110   25.8670 C   0  0  0  0  0  0  0  0  0  0  0  0
    7.8549    9.1842   25.2090 N   0  0  0  0  0  0  0  0  0  0  0  0
    8.7459    9.7524   24.3643 C   0  0  0  0  0  0  0  0  0  0  0  0
    8.8375   11.1214   24.1494 C   0  0  0  0  0  0  0  0  0  0  0  0
  1  2  2  0
  2  3  1  0
  3  4  1  0
  4  5  2  0
  4  6  1  0
  6  7  1  1
  6  8  1  0
  8  9  2  0
  9 10  1  0
 10 11  2  0
 11 12  1  0
 12 13  2  0
 13  8  1  0
M  END
>  <ref_pdb>  (495) 
A3194a

>  <subsites>  (495) 
1 - Active Site

>  <HIPPO Compound ID>  (495) 
16616

>  <energy_score>  (495) 
-9.452231

>  <fragmenstein_mode>  (495) 
expansion

>  <scratch_subdir>  (495) 
/opt/xchem-fragalysis-2/maxwin/BulkDock/SCRATCH/512194/C15027-P151

>  <smiles>  (495) 
C=CCC(=O)[C@H](O)c1ccncc1

>  <alias>  (495) 
C15027-P151

>  <ref_mols>  (495) 
A0719a,A3194a

>  <inspiration_score>  (495) 
None

>  <tags>  (495) 
BulkDock Fragalysis export,fragmenstein_placed,openbind_a71ev2a_c1_knitwork_impure,openbind_a71ev2a_c1_scaffolds

>  <fragmenstein_outcome>  (495) 
acceptable

>  <fragmenstein_error>  (495) 


>  <distance_score>  (495) 
0.785423

>  <inchikey>  (495) 
IIPNYHKMPRUJNY-UHFFFAOYSA-N

>  <name>  (495) 
C15027-P151

>  <HIPPO Pose ID>  (495) 
346796

>  <Energy>  (495) 
78.149427

>  <exports>  (495) 
['/opt/xchem-fragalysis-2/maxwin/BulkDock/OUTPUTS/openbind_a71ev2a_c1_knitwork_impure_165VXJF.sdf', '/opt/xchem-fragalysis-2/maxwin/BulkDock/OUTPUTS/openbind_a71ev2a_c1_knitwork_impure_1B07QS4.sdf', '/opt/xchem-fragalysis-2/maxwin/BulkDock/OUTPUTS/openbind_a71ev2a_c1_knitwork_impure_1B07X5R.sdf', '/opt/xchem-fragalysis-2/maxwin/openbind-hippo/a71ev2a/openbind_a71ev2a_c1_scaffold_products.sdf', '/opt/xchem-fragalysis-2/maxwin/openbind-hippo/a71ev2a/cycle_01/bulkdock/openbind_a71ev2a_c1_scaffold_products.sdf', '/opt/xchem-fragalysis-2/maxwin/openbind-hippo/a71ev2a/cycle_01/bulkdock/openbind_a71ev2a_c1_scaffolds.sdf']

>  <fragmenstein_runtime>  (495) 
1.699544

$$$$
C15044-P151
     RDKit          3D

 15 15  0  0  0  0  0  0  0  0999 V2000
   10.6091   15.1815   19.6792 N   0  0  0  0  0  0  0  0  0  0  0  0
   11.3098   15.5489   20.5246 C   0  0  0  0  0  0  0  0  0  0  0  0
   12.1118   16.0053   21.6583 C   0  0  0  0  0  0  0  0  0  0  0  0
   11.9963   15.0662   22.8604 C   0  0  0  0  0  0  0  0  0  0  0  0
   10.6242   15.0901   23.5290 C   0  0  0  0  0  0  0  0  0  0  0  0
    9.6889   14.2806   22.7515 N   0  0  0  0  0  0  0  0  0  0  0  0
    8.2718   13.7723   23.4972 S   0  0  0  0  0  0  0  0  0  0  0  0
    8.0437   14.6452   24.6257 O   0  0  0  0  0  0  0  0  0  0  0  0
    7.3304   13.5700   22.4142 O   0  0  0  0  0  0  0  0  0  0  0  0
    8.6372   12.1465   24.1201 C   0  0  0  0  0  0  0  0  0  0  0  0
    9.5187   11.3167   23.4511 C   0  0  0  0  0  0  0  0  0  0  0  0
    9.4428    9.9636   23.7425 C   0  0  0  0  0  0  0  0  0  0  0  0
    8.5229    9.5196   24.6885 C   0  0  0  0  0  0  0  0  0  0  0  0
    7.7341   10.4418   25.3536 C   0  0  0  0  0  0  0  0  0  0  0  0
    7.7759   11.7553   25.0976 N   0  0  0  0  0  0  0  0  0  0  0  0
  1  2  3  0
  2  3  1  0
  3  4  1  0
  4  5  1  0
  5  6  1  0
  6  7  1  0
  7  8  2  0
  7  9  2  0
  7 10  1  0
 10 11  2  0
 11 12  1  0
 12 13  2  0
 13 14  1  0
 14 15  2  0
 15 10  1  0
M  END
>  <ref_pdb>  (496) 
A3194a

>  <subsites>  (496) 
1 - Active Site

>  <HIPPO Compound ID>  (496) 
4708

>  <energy_score>  (496) 
-33.93071

>  <fragmenstein_mode>  (496) 
expansion

>  <scratch_subdir>  (496) 
/opt/xchem-fragalysis-2/maxwin/BulkDock/SCRATCH/512194/C15044-P151

>  <smiles>  (496) 
N#CCCCNS(=O)(=O)c1ccccn1

>  <alias>  (496) 
C15044-P151

>  <ref_mols>  (496) 
A0719a,A3194a

>  <inspiration_score>  (496) 
None

>  <tags>  (496) 
BulkDock Fragalysis export,fragmenstein_placed,openbind_a71ev2a_c1_knitwork_impure,openbind_a71ev2a_c1_scaffolds

>  <fragmenstein_outcome>  (496) 
acceptable

>  <fragmenstein_error>  (496) 


>  <distance_score>  (496) 
0.97313

>  <inchikey>  (496) 
ISSFEYHUURQIMN-UHFFFAOYSA-N

>  <name>  (496) 
C15044-P151

>  <HIPPO Pose ID>  (496) 
346809

>  <Energy>  (496) 
24.036237

>  <exports>  (496) 
['/opt/xchem-fragalysis-2/maxwin/BulkDock/OUTPUTS/openbind_a71ev2a_c1_knitwork_impure_165VXJF.sdf', '/opt/xchem-fragalysis-2/maxwin/BulkDock/OUTPUTS/openbind_a71ev2a_c1_knitwork_impure_1B07QS4.sdf', '/opt/xchem-fragalysis-2/maxwin/BulkDock/OUTPUTS/openbind_a71ev2a_c1_knitwork_impure_1B07X5R.sdf', '/opt/xchem-fragalysis-2/maxwin/openbind-hippo/a71ev2a/openbind_a71ev2a_c1_scaffold_products.sdf', '/opt/xchem-fragalysis-2/maxwin/openbind-hippo/a71ev2a/cycle_01/bulkdock/openbind_a71ev2a_c1_scaffold_products.sdf', '/opt/xchem-fragalysis-2/maxwin/openbind-hippo/a71ev2a/cycle_01/bulkdock/openbind_a71ev2a_c1_scaffolds.sdf']

>  <fragmenstein_runtime>  (496) 
3.493715

$$$$
C15045-P151
     RDKit          3D

 15 15  0  0  0  0  0  0  0  0999 V2000
   11.5657   15.3956   20.2178 C   0  0  0  0  0  0  0  0  0  0  0  0
   11.5706   16.0229   21.4002 C   0  0  0  0  0  0  0  0  0  0  0  0
   11.7831   15.3296   22.7060 C   0  0  0  0  0  0  0  0  0  0  0  0
   10.4524   15.0400   23.3938 C   0  0  0  0  0  0  0  0  0  0  0  0
    9.6678   14.0108   22.5868 C   0  0  0  0  0  0  0  0  0  0  0  0
    8.3715   13.5485   23.1885 C   0  0  0  0  0  0  0  0  0  0  0  0
    7.3886   13.3478   22.4628 O   0  0  0  0  0  0  0  0  0  0  0  0
    8.3360   13.1854   24.6689 C   0  0  1  0  0  0  0  0  0  0  0  0
    7.3120   13.9809   25.2605 O   0  0  0  0  0  0  0  0  0  0  0  0
    8.0942   11.7059   24.8815 C   0  0  0  0  0  0  0  0  0  0  0  0
    7.1129   11.2527   25.7697 C   0  0  0  0  0  0  0  0  0  0  0  0
    6.9198    9.8934   25.9126 C   0  0  0  0  0  0  0  0  0  0  0  0
    7.6422    8.9684   25.2536 N   0  0  0  0  0  0  0  0  0  0  0  0
    8.6001    9.4097   24.4108 C   0  0  0  0  0  0  0  0  0  0  0  0
    8.8651   10.7511   24.2018 C   0  0  0  0  0  0  0  0  0  0  0  0
  1  2  2  0
  2  3  1  0
  3  4  1  0
  4  5  1  0
  5  6  1  0
  6  7  2  0
  6  8  1  0
  8  9  1  1
  8 10  1  0
 10 11  2  0
 11 12  1  0
 12 13  2  0
 13 14  1  0
 14 15  2  0
 15 10  1  0
M  END
>  <ref_pdb>  (497) 
A3194a

>  <subsites>  (497) 
1 - Active Site

>  <HIPPO Compound ID>  (497) 
8425

>  <energy_score>  (497) 
-15.644988

>  <fragmenstein_mode>  (497) 
expansion

>  <scratch_subdir>  (497) 
/opt/xchem-fragalysis-2/maxwin/BulkDock/SCRATCH/512194/C15045-P151

>  <smiles>  (497) 
C=CCCCC(=O)[C@@H](O)c1ccncc1

>  <alias>  (497) 
C15045-P151

>  <ref_mols>  (497) 
A0719a,A3194a

>  <inspiration_score>  (497) 
None

>  <tags>  (497) 
BulkDock Fragalysis export,fragmenstein_placed,openbind_a71ev2a_c1_knitwork_impure,openbind_a71ev2a_c1_scaffolds

>  <fragmenstein_outcome>  (497) 
acceptable

>  <fragmenstein_error>  (497) 


>  <distance_score>  (497) 
0.786126

>  <inchikey>  (497) 
YIPVAMALDHWMTF-UHFFFAOYSA-N

>  <name>  (497) 
C15045-P151

>  <HIPPO Pose ID>  (497) 
346810

>  <Energy>  (497) 
63.41252

>  <exports>  (497) 
['/opt/xchem-fragalysis-2/maxwin/BulkDock/OUTPUTS/openbind_a71ev2a_c1_knitwork_impure_165VXJF.sdf', '/opt/xchem-fragalysis-2/maxwin/BulkDock/OUTPUTS/openbind_a71ev2a_c1_knitwork_impure_1B07QS4.sdf', '/opt/xchem-fragalysis-2/maxwin/BulkDock/OUTPUTS/openbind_a71ev2a_c1_knitwork_impure_1B07X5R.sdf', '/opt/xchem-fragalysis-2/maxwin/openbind-hippo/a71ev2a/openbind_a71ev2a_c1_scaffold_products.sdf', '/opt/xchem-fragalysis-2/maxwin/openbind-hippo/a71ev2a/cycle_01/bulkdock/openbind_a71ev2a_c1_scaffold_products.sdf', '/opt/xchem-fragalysis-2/maxwin/openbind-hippo/a71ev2a/cycle_01/bulkdock/openbind_a71ev2a_c1_scaffolds.sdf']

>  <fragmenstein_runtime>  (497) 
1.531207

$$$$
C15048-P151
     RDKit          3D

 16 16  0  0  0  0  0  0  0  0999 V2000
    8.1435   15.9433   26.8501 C   0  0  0  0  0  0  0  0  0  0  0  0
    8.4167   14.4772   26.5225 C   0  0  0  0  0  0  0  0  0  0  0  0
    7.6124   13.9367   25.3219 C   0  0  1  0  0  0  0  0  0  0  0  0
    7.9809   14.6837   24.1275 N   0  0  0  0  0  0  0  0  0  0  0  0
    7.1872   14.5851   22.6824 S   0  0  0  0  0  0  0  0  0  0  0  0
    7.9111   15.4996   21.8319 O   0  0  0  0  0  0  0  0  0  0  0  0
    7.0053   13.2164   22.2803 O   0  0  0  0  0  0  0  0  0  0  0  0
    5.6981   15.2772   23.0286 N   0  0  0  0  0  0  0  0  0  0  0  0
    4.6900   14.5690   23.8295 C   0  0  0  0  0  0  0  0  0  0  0  0
    5.0607   15.8607   21.8512 C   0  0  0  0  0  0  0  0  0  0  0  0
    7.7542   12.4190   25.2277 C   0  0  0  0  0  0  0  0  0  0  0  0
    8.7037   11.7720   24.4249 C   0  0  0  0  0  0  0  0  0  0  0  0
    8.7232   10.3801   24.3921 C   0  0  0  0  0  0  0  0  0  0  0  0
    7.9021    9.5981   25.1303 N   0  0  0  0  0  0  0  0  0  0  0  0
    7.0003   10.2298   25.9008 C   0  0  0  0  0  0  0  0  0  0  0  0
    6.8915   11.6095   25.9826 C   0  0  0  0  0  0  0  0  0  0  0  0
  1  2  1  0
  3  2  1  1
  3  4  1  0
  4  5  1  0
  5  6  2  0
  5  7  2  0
  5  8  1  0
  8  9  1  0
  8 10  1  0
  3 11  1  0
 11 12  2  0
 12 13  1  0
 13 14  2  0
 14 15  1  0
 15 16  2  0
 16 11  1  0
M  END
>  <ref_pdb>  (498) 
A3194a

>  <subsites>  (498) 
1 - Active Site

>  <HIPPO Compound ID>  (498) 
16607

>  <energy_score>  (498) 
-26.767304

>  <fragmenstein_mode>  (498) 
expansion

>  <scratch_subdir>  (498) 
/opt/xchem-fragalysis-2/maxwin/BulkDock/SCRATCH/512194/C15048-P151

>  <smiles>  (498) 
CC[C@@H](NS(=O)(=O)N(C)C)c1ccncc1

>  <alias>  (498) 
C15048-P151

>  <ref_mols>  (498) 
A0719a,A3194a

>  <inspiration_score>  (498) 
None

>  <tags>  (498) 
BulkDock Fragalysis export,fragmenstein_placed,openbind_a71ev2a_c1_knitwork_impure,openbind_a71ev2a_c1_scaffolds

>  <fragmenstein_outcome>  (498) 
acceptable

>  <fragmenstein_error>  (498) 


>  <distance_score>  (498) 
0.961815

>  <inchikey>  (498) 
MLBVNWMSZZUEEK-UHFFFAOYSA-N

>  <name>  (498) 
C15048-P151

>  <HIPPO Pose ID>  (498) 
346812

>  <Energy>  (498) 
-165.130948

>  <exports>  (498) 
['/opt/xchem-fragalysis-2/maxwin/BulkDock/OUTPUTS/openbind_a71ev2a_c1_knitwork_impure_165VXJF.sdf', '/opt/xchem-fragalysis-2/maxwin/BulkDock/OUTPUTS/openbind_a71ev2a_c1_knitwork_impure_1B07QS4.sdf', '/opt/xchem-fragalysis-2/maxwin/BulkDock/OUTPUTS/openbind_a71ev2a_c1_knitwork_impure_1B07X5R.sdf', '/opt/xchem-fragalysis-2/maxwin/openbind-hippo/a71ev2a/openbind_a71ev2a_c1_scaffold_products.sdf', '/opt/xchem-fragalysis-2/maxwin/openbind-hippo/a71ev2a/cycle_01/bulkdock/openbind_a71ev2a_c1_scaffold_products.sdf', '/opt/xchem-fragalysis-2/maxwin/openbind-hippo/a71ev2a/cycle_01/bulkdock/openbind_a71ev2a_c1_scaffolds.sdf']

>  <fragmenstein_runtime>  (498) 
8.806949

$$$$
C15067-P151
     RDKit          3D

 15 15  0  0  0  0  0  0  0  0999 V2000
   11.3372   15.1619   20.2573 C   0  0  0  0  0  0  0  0  0  0  0  0
   11.7371   15.8920   21.5308 C   0  0  0  0  0  0  0  0  0  0  0  0
   11.4464   15.0610   22.7774 C   0  0  0  0  0  0  0  0  0  0  0  0
   10.3517   15.5829   23.5409 O   0  0  0  0  0  0  0  0  0  0  0  0
    9.0738   15.4272   22.9331 C   0  0  0  0  0  0  0  0  0  0  0  0
    8.4588   14.0529   23.1587 C   0  0  0  0  0  0  0  0  0  0  0  0
    7.8068   13.4804   22.2801 O   0  0  0  0  0  0  0  0  0  0  0  0
    8.6590   13.4746   24.5699 C   0  0  1  0  0  0  0  0  0  0  0  0
    7.7826   14.0757   25.5142 O   0  0  0  0  0  0  0  0  0  0  0  0
    8.5410   11.9711   24.5847 C   0  0  0  0  0  0  0  0  0  0  0  0
    7.6302   11.2711   25.3803 C   0  0  0  0  0  0  0  0  0  0  0  0
    7.6251    9.8815   25.3568 C   0  0  0  0  0  0  0  0  0  0  0  0
    8.5330    9.2407   24.5284 C   0  0  0  0  0  0  0  0  0  0  0  0
    9.4161    9.8805   23.7412 N   0  0  0  0  0  0  0  0  0  0  0  0
    9.3960   11.2227   23.7782 C   0  0  0  0  0  0  0  0  0  0  0  0
  1  2  1  0
  2  3  1  0
  3  4  1  0
  4  5  1  0
  5  6  1  0
  6  7  2  0
  6  8  1  0
  8  9  1  1
  8 10  1  0
 10 11  2  0
 11 12  1  0
 12 13  2  0
 13 14  1  0
 14 15  2  0
 15 10  1  0
M  END
>  <ref_pdb>  (499) 
A3194a

>  <subsites>  (499) 
1 - Active Site

>  <HIPPO Compound ID>  (499) 
137405

>  <energy_score>  (499) 
-18.837202

>  <fragmenstein_mode>  (499) 
expansion

>  <scratch_subdir>  (499) 
/opt/xchem-fragalysis-2/maxwin/BulkDock/SCRATCH/512194/C15067-P151

>  <smiles>  (499) 
CCCOCC(=O)[C@@H](O)c1cccnc1

>  <alias>  (499) 
C15067-P151

>  <ref_mols>  (499) 
A0719a,A3194a

>  <inspiration_score>  (499) 
None

>  <tags>  (499) 
BulkDock Fragalysis export,fragmenstein_placed,openbind_a71ev2a_c1_knitwork_impure,openbind_a71ev2a_c1_scaffolds

>  <fragmenstein_outcome>  (499) 
acceptable

>  <fragmenstein_error>  (499) 


>  <distance_score>  (499) 
0.833003

>  <inchikey>  (499) 
GKXYBOZHRPWQMF-UHFFFAOYSA-N

>  <name>  (499) 
C15067-P151

>  <HIPPO Pose ID>  (499) 
346826

>  <Energy>  (499) 
77.282235

>  <exports>  (499) 
['/opt/xchem-fragalysis-2/maxwin/BulkDock/OUTPUTS/openbind_a71ev2a_c1_knitwork_impure_165VXJF.sdf', '/opt/xchem-fragalysis-2/maxwin/BulkDock/OUTPUTS/openbind_a71ev2a_c1_knitwork_impure_1B07QS4.sdf', '/opt/xchem-fragalysis-2/maxwin/BulkDock/OUTPUTS/openbind_a71ev2a_c1_knitwork_impure_1B07X5R.sdf', '/opt/xchem-fragalysis-2/maxwin/openbind-hippo/a71ev2a/openbind_a71ev2a_c1_scaffold_products.sdf', '/opt/xchem-fragalysis-2/maxwin/openbind-hippo/a71ev2a/cycle_01/bulkdock/openbind_a71ev2a_c1_scaffold_products.sdf', '/opt/xchem-fragalysis-2/maxwin/openbind-hippo/a71ev2a/cycle_01/bulkdock/openbind_a71ev2a_c1_scaffolds.sdf']

>  <fragmenstein_runtime>  (499) 
2.613035

$$$$
C8138-P151
     RDKit          3D

 15 15  0  0  0  0  0  0  0  0999 V2000
   11.9256   16.0858   21.4334 C   0  0  0  0  0  0  0  0  0  0  0  0
   11.9782   14.9170   22.3998 C   0  0  0  0  0  0  0  0  0  0  0  0
   10.7983   14.7865   23.3659 C   0  0  1  0  0  0  0  0  0  0  0  0
   10.9019   15.8331   24.4743 C   0  0  0  0  0  0  0  0  0  0  0  0
    9.4367   14.8289   22.6559 C   0  0  0  0  0  0  0  0  0  0  0  0
    8.4103   13.8443   23.1896 C   0  0  0  0  0  0  0  0  0  0  0  0
    7.4976   13.4311   22.4622 O   0  0  0  0  0  0  0  0  0  0  0  0
    8.4774   13.4135   24.6571 C   0  0  1  0  0  0  0  0  0  0  0  0
    7.3226   13.9112   25.3255 O   0  0  0  0  0  0  0  0  0  0  0  0
    8.6809   11.8947   24.8593 C   0  0  0  0  0  0  0  0  0  0  0  0
    7.4052   11.1910   25.2994 C   0  0  0  0  0  0  0  0  0  0  0  0
    7.5732    9.6935   25.4176 C   0  0  0  0  0  0  0  0  0  0  0  0
    8.1515    9.1092   24.2326 N   0  0  0  0  0  0  0  0  0  0  0  0
    9.4111    9.6613   23.7924 C   0  0  0  0  0  0  0  0  0  0  0  0
    9.3822   11.1804   23.6977 C   0  0  0  0  0  0  0  0  0  0  0  0
  1  2  1  0
  2  3  1  0
  3  4  1  1
  3  5  1  0
  5  6  1  0
  6  7  2  0
  6  8  1  0
  8  9  1  1
  8 10  1  0
 10 11  1  0
 11 12  1  0
 12 13  1  0
 13 14  1  0
 14 15  1  0
 15 10  1  0
M  END
>  <ref_pdb>  (500) 
A3194a

>  <subsites>  (500) 
1 - Active Site

>  <HIPPO Compound ID>  (500) 
6259

>  <energy_score>  (500) 
-28.6726

>  <fragmenstein_mode>  (500) 
expansion

>  <scratch_subdir>  (500) 
/opt/xchem-fragalysis-2/maxwin/BulkDock/SCRATCH/512194/C8138-P151

>  <smiles>  (500) 
CC[C@@H](C)CC(=O)[C@@H](O)C1CCNCC1

>  <alias>  (500) 
C8138-P151

>  <ref_mols>  (500) 
A0719a,A3194a

>  <inspiration_score>  (500) 
None

>  <tags>  (500) 
BulkDock Fragalysis export,fragmenstein_placed,openbind_a71ev2a_c1_knitwork_impure,openbind_a71ev2a_c1_scaffolds

>  <fragmenstein_outcome>  (500) 
acceptable

>  <fragmenstein_error>  (500) 


>  <distance_score>  (500) 
0.79455

>  <inchikey>  (500) 
BELIZRHOJQZKIU-UHFFFAOYSA-N

>  <name>  (500) 
C8138-P151

>  <HIPPO Pose ID>  (500) 
346834

>  <Energy>  (500) 
44.199026

>  <exports>  (500) 
['/opt/xchem-fragalysis-2/maxwin/BulkDock/OUTPUTS/openbind_a71ev2a_c1_knitwork_impure_165VXJF.sdf', '/opt/xchem-fragalysis-2/maxwin/BulkDock/OUTPUTS/openbind_a71ev2a_c1_knitwork_impure_1B07QS4.sdf', '/opt/xchem-fragalysis-2/maxwin/BulkDock/OUTPUTS/openbind_a71ev2a_c1_knitwork_impure_1B07X5R.sdf', '/opt/xchem-fragalysis-2/maxwin/openbind-hippo/a71ev2a/openbind_a71ev2a_c1_scaffold_products.sdf', '/opt/xchem-fragalysis-2/maxwin/openbind-hippo/a71ev2a/cycle_01/bulkdock/openbind_a71ev2a_c1_scaffold_products.sdf', '/opt/xchem-fragalysis-2/maxwin/openbind-hippo/a71ev2a/cycle_01/bulkdock/openbind_a71ev2a_c1_scaffolds.sdf']

>  <fragmenstein_runtime>  (500) 
2.854145

$$$$
C8155-P151
     RDKit          3D

 16 16  0  0  0  0  0  0  0  0999 V2000
   10.7299   15.3539   18.6555 C   0  0  0  0  0  0  0  0  0  0  0  0
   10.9516   15.7822   20.0624 C   0  0  0  0  0  0  0  0  0  0  0  0
   11.6453   15.0292   20.9221 C   0  0  0  0  0  0  0  0  0  0  0  0
   12.1440   15.5069   22.1798 C   0  0  0  0  0  0  0  0  0  0  0  0
   11.5456   15.5986   23.3741 C   0  0  0  0  0  0  0  0  0  0  0  0
   10.1786   15.2791   23.8657 C   0  0  0  0  0  0  0  0  0  0  0  0
    9.4364   14.5413   22.8709 N   0  0  0  0  0  0  0  0  0  0  0  0
    8.0826   13.7721   23.3976 S   0  0  0  0  0  0  0  0  0  0  0  0
    7.4257   14.6026   24.3733 O   0  0  0  0  0  0  0  0  0  0  0  0
    7.4021   13.2510   22.2363 O   0  0  0  0  0  0  0  0  0  0  0  0
    8.7152   12.4627   24.2436 N   0  0  0  0  0  0  0  0  0  0  0  0
    9.8556   11.7499   23.6445 C   0  0  0  0  0  0  0  0  0  0  0  0
    9.7180   10.2499   23.4589 C   0  0  0  0  0  0  0  0  0  0  0  0
    8.7009    9.5107   24.2885 C   0  0  0  0  0  0  0  0  0  0  0  0
    8.0777   10.3395   25.3794 C   0  0  0  0  0  0  0  0  0  0  0  0
    7.6505   11.7002   24.9166 C   0  0  0  0  0  0  0  0  0  0  0  0
  1  2  1  0
  2  3  2  3
  3  4  1  0
  4  5  2  3
  5  6  1  0
  6  7  1  0
  7  8  1  0
  8  9  2  0
  8 10  2  0
  8 11  1  0
 11 12  1  0
 12 13  1  0
 13 14  1  0
 14 15  1  0
 15 16  1  0
 16 11  1  0
M  END
>  <ref_pdb>  (501) 
A3194a

>  <subsites>  (501) 
1 - Active Site

>  <HIPPO Compound ID>  (501) 
137594

>  <energy_score>  (501) 
-27.83981

>  <fragmenstein_mode>  (501) 
expansion

>  <scratch_subdir>  (501) 
/opt/xchem-fragalysis-2/maxwin/BulkDock/SCRATCH/512194/C8155-P151

>  <smiles>  (501) 
CC=CC=CCNS(=O)(=O)N1CCCCC1

>  <alias>  (501) 
C8155-P151

>  <ref_mols>  (501) 
A0719a,A3194a

>  <inspiration_score>  (501) 
None

>  <tags>  (501) 
BulkDock Fragalysis export,fragmenstein_placed,openbind_a71ev2a_c1_knitwork_impure,openbind_a71ev2a_c1_scaffolds

>  <fragmenstein_outcome>  (501) 
acceptable

>  <fragmenstein_error>  (501) 


>  <distance_score>  (501) 
0.947455

>  <inchikey>  (501) 
UOUIWTUESXXDBU-UHFFFAOYSA-N

>  <name>  (501) 
C8155-P151

>  <HIPPO Pose ID>  (501) 
346848

>  <Energy>  (501) 
-179.963871

>  <exports>  (501) 
['/opt/xchem-fragalysis-2/maxwin/BulkDock/OUTPUTS/openbind_a71ev2a_c1_knitwork_impure_165VXJF.sdf', '/opt/xchem-fragalysis-2/maxwin/BulkDock/OUTPUTS/openbind_a71ev2a_c1_knitwork_impure_1B07QS4.sdf', '/opt/xchem-fragalysis-2/maxwin/BulkDock/OUTPUTS/openbind_a71ev2a_c1_knitwork_impure_1B07X5R.sdf', '/opt/xchem-fragalysis-2/maxwin/openbind-hippo/a71ev2a/openbind_a71ev2a_c1_scaffold_products.sdf', '/opt/xchem-fragalysis-2/maxwin/openbind-hippo/a71ev2a/cycle_01/bulkdock/openbind_a71ev2a_c1_scaffold_products.sdf', '/opt/xchem-fragalysis-2/maxwin/openbind-hippo/a71ev2a/cycle_01/bulkdock/openbind_a71ev2a_c1_scaffolds.sdf']

>  <fragmenstein_runtime>  (501) 
3.918574

$$$$
C8169-P151
     RDKit          3D

 14 14  0  0  0  0  0  0  0  0999 V2000
    7.7835   14.6486   24.5288 O   0  0  0  0  0  0  0  0  0  0  0  0
    8.2676   13.7683   23.4987 S   0  0  0  0  0  0  0  0  0  0  0  0
    7.4493   13.3263   22.3918 O   0  0  0  0  0  0  0  0  0  0  0  0
    9.6228   14.4168   22.8303 N   0  0  0  0  0  0  0  0  0  0  0  0
   10.6128   15.0936   23.6537 C   0  0  0  0  0  0  0  0  0  0  0  0
   11.9506   15.0530   22.9154 C   0  0  0  0  0  0  0  0  0  0  0  0
   12.0307   15.9785   21.7023 C   0  0  0  0  0  0  0  0  0  0  0  0
   10.9777   15.4710   20.3596 Cl  0  0  0  0  0  0  0  0  0  0  0  0
    8.8499   12.3804   24.2754 N   0  0  0  0  0  0  0  0  0  0  0  0
    9.8852   11.6273   23.5411 C   0  0  0  0  0  0  0  0  0  0  0  0
    9.8036   10.1115   23.5054 C   0  0  0  0  0  0  0  0  0  0  0  0
    8.6876    9.4238   24.2398 C   0  0  0  0  0  0  0  0  0  0  0  0
    8.0620   10.2553   25.3271 C   0  0  0  0  0  0  0  0  0  0  0  0
    7.7212   11.6476   24.8860 C   0  0  0  0  0  0  0  0  0  0  0  0
  1  2  2  0
  2  3  2  0
  2  4  1  0
  4  5  1  0
  5  6  1  0
  6  7  1  0
  7  8  1  0
  2  9  1  0
  9 10  1  0
 10 11  1  0
 11 12  1  0
 12 13  1  0
 13 14  1  0
 14  9  1  0
M  END
>  <ref_pdb>  (502) 
A3194a

>  <subsites>  (502) 
1 - Active Site

>  <HIPPO Compound ID>  (502) 
1791

>  <energy_score>  (502) 
-74.883451

>  <fragmenstein_mode>  (502) 
expansion

>  <scratch_subdir>  (502) 
/opt/xchem-fragalysis-2/maxwin/BulkDock/SCRATCH/512194/C8169-P151

>  <smiles>  (502) 
O=S(=O)(NCCCCl)N1CCCCC1

>  <alias>  (502) 
C8169-P151

>  <ref_mols>  (502) 
A0719a,A3194a

>  <inspiration_score>  (502) 
None

>  <tags>  (502) 
BulkDock Fragalysis export,fragmenstein_placed,openbind_a71ev2a_c1_knitwork_impure,openbind_a71ev2a_c1_scaffolds

>  <fragmenstein_outcome>  (502) 
acceptable

>  <fragmenstein_error>  (502) 


>  <distance_score>  (502) 
0.816358

>  <inchikey>  (502) 
RJKAJKWADMVNQR-UHFFFAOYSA-N

>  <name>  (502) 
C8169-P151

>  <HIPPO Pose ID>  (502) 
346858

>  <Energy>  (502) 
-171.39985

>  <exports>  (502) 
['/opt/xchem-fragalysis-2/maxwin/BulkDock/OUTPUTS/openbind_a71ev2a_c1_knitwork_impure_165VXJF.sdf', '/opt/xchem-fragalysis-2/maxwin/BulkDock/OUTPUTS/openbind_a71ev2a_c1_knitwork_impure_1B07QS4.sdf', '/opt/xchem-fragalysis-2/maxwin/BulkDock/OUTPUTS/openbind_a71ev2a_c1_knitwork_impure_1B07X5R.sdf', '/opt/xchem-fragalysis-2/maxwin/openbind-hippo/a71ev2a/openbind_a71ev2a_c1_scaffold_products.sdf', '/opt/xchem-fragalysis-2/maxwin/openbind-hippo/a71ev2a/cycle_01/bulkdock/openbind_a71ev2a_c1_scaffold_products.sdf', '/opt/xchem-fragalysis-2/maxwin/openbind-hippo/a71ev2a/cycle_01/bulkdock/openbind_a71ev2a_c1_scaffolds.sdf']

>  <fragmenstein_runtime>  (502) 
3.85952

$$$$
C8173-P151
     RDKit          3D

 17 17  0  0  0  0  0  0  0  0999 V2000
    7.6553   13.4703   22.0796 O   0  0  0  0  0  0  0  0  0  0  0  0
    8.2005   14.1218   22.8833 C   0  0  0  0  0  0  0  0  0  0  0  0
    9.1141   15.3663   22.7183 N   0  0  0  0  0  0  0  0  0  0  0  0
    9.6205   16.0062   21.5269 C   0  0  0  0  0  0  0  0  0  0  0  0
   10.4742   15.0247   20.7381 C   0  0  0  0  0  0  0  0  0  0  0  0
   10.6191   15.4609   19.3068 C   0  0  0  0  0  0  0  0  0  0  0  0
   11.3955   14.6023   18.6142 F   0  0  0  0  0  0  0  0  0  0  0  0
   11.1804   16.6738   19.2429 F   0  0  0  0  0  0  0  0  0  0  0  0
    9.4309   15.5551   18.6841 F   0  0  0  0  0  0  0  0  0  0  0  0
    8.1891   13.7632   24.3904 C   0  0  1  0  0  0  0  0  0  0  0  0
    7.3242   14.5616   25.0709 F   0  0  0  0  0  0  0  0  0  0  0  0
    7.7873   12.2901   24.5491 C   0  0  0  0  0  0  0  0  0  0  0  0
    7.1293   11.9403   25.8769 C   0  0  0  0  0  0  0  0  0  0  0  0
    6.8564   10.4433   25.9764 C   0  0  0  0  0  0  0  0  0  0  0  0
    8.0189    9.6270   25.6768 N   0  0  0  0  0  0  0  0  0  0  0  0
    8.6822    9.9161   24.4137 C   0  0  0  0  0  0  0  0  0  0  0  0
    8.9914   11.3942   24.2455 C   0  0  0  0  0  0  0  0  0  0  0  0
  1  2  2  0
  2  3  1  0
  3  4  1  0
  4  5  1  0
  5  6  1  0
  6  7  1  0
  6  8  1  0
  6  9  1  0
  2 10  1  0
 10 11  1  1
 10 12  1  0
 12 13  1  0
 13 14  1  0
 14 15  1  0
 15 16  1  0
 16 17  1  0
 17 12  1  0
M  END
>  <ref_pdb>  (503) 
A3194a

>  <subsites>  (503) 
1 - Active Site

>  <HIPPO Compound ID>  (503) 
20070

>  <energy_score>  (503) 
-8.681609

>  <fragmenstein_mode>  (503) 
expansion

>  <scratch_subdir>  (503) 
/opt/xchem-fragalysis-2/maxwin/BulkDock/SCRATCH/512194/C8173-P151

>  <smiles>  (503) 
O=C(NCCC(F)(F)F)[C@@H](F)C1CCNCC1

>  <alias>  (503) 
C8173-P151

>  <ref_mols>  (503) 
A0719a,A3194a

>  <inspiration_score>  (503) 
None

>  <tags>  (503) 
BulkDock Fragalysis export,fragmenstein_placed,openbind_a71ev2a_c1_knitwork_impure,openbind_a71ev2a_c1_scaffolds

>  <fragmenstein_outcome>  (503) 
acceptable

>  <fragmenstein_error>  (503) 


>  <distance_score>  (503) 
0.879135

>  <inchikey>  (503) 
CLRMICGDIZHILI-UHFFFAOYSA-N

>  <name>  (503) 
C8173-P151

>  <HIPPO Pose ID>  (503) 
346861

>  <Energy>  (503) 
24.646186

>  <exports>  (503) 
['/opt/xchem-fragalysis-2/maxwin/BulkDock/OUTPUTS/openbind_a71ev2a_c1_knitwork_impure_165VXJF.sdf', '/opt/xchem-fragalysis-2/maxwin/BulkDock/OUTPUTS/openbind_a71ev2a_c1_knitwork_impure_1B07QS4.sdf', '/opt/xchem-fragalysis-2/maxwin/BulkDock/OUTPUTS/openbind_a71ev2a_c1_knitwork_impure_1B07X5R.sdf', '/opt/xchem-fragalysis-2/maxwin/openbind-hippo/a71ev2a/openbind_a71ev2a_c1_scaffold_products.sdf', '/opt/xchem-fragalysis-2/maxwin/openbind-hippo/a71ev2a/cycle_01/bulkdock/openbind_a71ev2a_c1_scaffold_products.sdf', '/opt/xchem-fragalysis-2/maxwin/openbind-hippo/a71ev2a/cycle_01/bulkdock/openbind_a71ev2a_c1_scaffolds.sdf']

>  <fragmenstein_runtime>  (503) 
4.340039

$$$$
C8174-P151
     RDKit          3D

 19 19  0  0  0  0  0  0  0  0999 V2000
   11.1556   15.0335   26.2781 C   0  0  0  0  0  0  0  0  0  0  0  0
   11.1752   15.7898   24.9639 C   0  0  0  0  0  0  0  0  0  0  0  0
   11.8824   15.0084   23.8534 C   0  0  0  0  0  0  0  0  0  0  0  0
   11.6993   15.6797   22.4853 C   0  0  0  0  0  0  0  0  0  0  0  0
   11.0961   14.7399   21.4226 C   0  0  2  0  0  0  0  0  0  0  0  0
   11.3646   15.2477   20.0054 C   0  0  0  0  0  0  0  0  0  0  0  0
   10.4295   16.3091   19.4425 C   0  0  0  0  0  0  0  0  0  0  0  0
    9.9080   17.3823   20.3899 C   0  0  0  0  0  0  0  0  0  0  0  0
    9.6178   14.3718   21.5911 C   0  0  0  0  0  0  0  0  0  0  0  0
    9.1746   14.5125   22.9743 N   0  0  0  0  0  0  0  0  0  0  0  0
    7.8416   13.6904   23.4840 S   0  0  0  0  0  0  0  0  0  0  0  0
    7.5015   14.3018   24.7451 O   0  0  0  0  0  0  0  0  0  0  0  0
    6.9312   13.6020   22.3688 O   0  0  0  0  0  0  0  0  0  0  0  0
    8.3268   12.1222   23.8055 N   0  0  0  0  0  0  0  0  0  0  0  0
    7.6165   11.5511   24.9803 C   0  0  0  0  0  0  0  0  0  0  0  0
    7.8735   10.0649   25.1649 C   0  0  0  0  0  0  0  0  0  0  0  0
    8.7328    9.3914   24.1124 C   0  0  0  0  0  0  0  0  0  0  0  0
    9.8276   10.2532   23.5167 C   0  0  0  0  0  0  0  0  0  0  0  0
    9.7362   11.7478   23.8034 C   0  0  0  0  0  0  0  0  0  0  0  0
  1  2  1  0
  2  3  1  0
  3  4  1  0
  5  4  1  1
  5  6  1  0
  6  7  1  0
  7  8  1  0
  5  9  1  0
  9 10  1  0
 10 11  1  0
 11 12  2  0
 11 13  2  0
 11 14  1  0
 14 15  1  0
 15 16  1  0
 16 17  1  0
 17 18  1  0
 18 19  1  0
 19 14  1  0
M  END
>  <ref_pdb>  (504) 
A3194a

>  <subsites>  (504) 
1 - Active Site

>  <HIPPO Compound ID>  (504) 
7166

>  <energy_score>  (504) 
-28.092077

>  <fragmenstein_mode>  (504) 
expansion

>  <scratch_subdir>  (504) 
/opt/xchem-fragalysis-2/maxwin/BulkDock/SCRATCH/512194/C8174-P151

>  <smiles>  (504) 
CCCC[C@H](CCC)CNS(=O)(=O)N1CCCCC1

>  <alias>  (504) 
C8174-P151

>  <ref_mols>  (504) 
A0719a,A3194a

>  <inspiration_score>  (504) 
None

>  <tags>  (504) 
BulkDock Fragalysis export,fragmenstein_placed,openbind_a71ev2a_c1_knitwork_impure,openbind_a71ev2a_c1_scaffolds

>  <fragmenstein_outcome>  (504) 
acceptable

>  <fragmenstein_error>  (504) 


>  <distance_score>  (504) 
0.924325

>  <inchikey>  (504) 
AVOIXSQDOULTDX-UHFFFAOYSA-N

>  <name>  (504) 
C8174-P151

>  <HIPPO Pose ID>  (504) 
346862

>  <Energy>  (504) 
-142.188317

>  <exports>  (504) 
['/opt/xchem-fragalysis-2/maxwin/BulkDock/OUTPUTS/openbind_a71ev2a_c1_knitwork_impure_165VXJF.sdf', '/opt/xchem-fragalysis-2/maxwin/BulkDock/OUTPUTS/openbind_a71ev2a_c1_knitwork_impure_1B07QS4.sdf', '/opt/xchem-fragalysis-2/maxwin/BulkDock/OUTPUTS/openbind_a71ev2a_c1_knitwork_impure_1B07X5R.sdf', '/opt/xchem-fragalysis-2/maxwin/openbind-hippo/a71ev2a/openbind_a71ev2a_c1_scaffold_products.sdf', '/opt/xchem-fragalysis-2/maxwin/openbind-hippo/a71ev2a/cycle_01/bulkdock/openbind_a71ev2a_c1_scaffold_products.sdf', '/opt/xchem-fragalysis-2/maxwin/openbind-hippo/a71ev2a/cycle_01/bulkdock/openbind_a71ev2a_c1_scaffolds.sdf']

>  <fragmenstein_runtime>  (504) 
10.833267

$$$$
C8176-P151
     RDKit          3D

 15 15  0  0  0  0  0  0  0  0999 V2000
    7.9204   14.2901   25.3723 C   0  0  0  0  0  0  0  0  0  0  0  0
    8.9621   13.5325   24.5440 C   0  0  2  0  0  0  0  0  0  0  0  0
   10.2321   13.9699   25.0506 O   0  0  0  0  0  0  0  0  0  0  0  0
    8.7348   13.9408   23.0712 C   0  0  0  0  0  0  0  0  0  0  0  0
    7.8936   13.3523   22.3778 O   0  0  0  0  0  0  0  0  0  0  0  0
    9.5739   15.0982   22.5513 C   0  0  0  0  0  0  0  0  0  0  0  0
    9.7584   16.0754   23.4779 F   0  0  0  0  0  0  0  0  0  0  0  0
    9.0227   15.6915   21.4608 F   0  0  0  0  0  0  0  0  0  0  0  0
   11.3155   14.3825   22.0498 Br  0  0  0  0  0  0  0  0  0  0  0  0
    8.9226   11.9947   24.7607 C   0  0  1  0  0  0  0  0  0  0  0  0
    7.5542   11.3773   25.0260 C   0  0  0  0  0  0  0  0  0  0  0  0
    7.6598    9.8733   25.2651 C   0  0  0  0  0  0  0  0  0  0  0  0
    8.5560    9.1411   24.2641 C   0  0  0  0  0  0  0  0  0  0  0  0
    9.8162    9.8155   24.0203 N   0  0  0  0  0  0  0  0  0  0  0  0
    9.6490   11.2097   23.6595 C   0  0  0  0  0  0  0  0  0  0  0  0
  2  1  1  1
  2  3  1  0
  2  4  1  0
  4  5  2  0
  4  6  1  0
  6  7  1  0
  6  8  1  0
  6  9  1  0
  2 10  1  0
 10 11  1  6
 11 12  1  0
 12 13  1  0
 13 14  1  0
 14 15  1  0
 15 10  1  0
M  END
>  <ref_pdb>  (505) 
A3194a

>  <subsites>  (505) 
1 - Active Site

>  <HIPPO Compound ID>  (505) 
7163

>  <energy_score>  (505) 
-30.528525

>  <fragmenstein_mode>  (505) 
expansion

>  <scratch_subdir>  (505) 
/opt/xchem-fragalysis-2/maxwin/BulkDock/SCRATCH/512194/C8176-P151

>  <smiles>  (505) 
C[C@](O)(C(=O)C(F)(F)Br)[C@H]1CCCNC1

>  <alias>  (505) 
C8176-P151

>  <ref_mols>  (505) 
A0719a,A3194a

>  <inspiration_score>  (505) 
None

>  <tags>  (505) 
BulkDock Fragalysis export,fragmenstein_placed,openbind_a71ev2a_c1_knitwork_impure,openbind_a71ev2a_c1_scaffolds

>  <fragmenstein_outcome>  (505) 
acceptable

>  <fragmenstein_error>  (505) 


>  <distance_score>  (505) 
0.790586

>  <inchikey>  (505) 
IZSOYUYGRQMQRH-UHFFFAOYSA-N

>  <name>  (505) 
C8176-P151

>  <HIPPO Pose ID>  (505) 
346864

>  <Energy>  (505) 
72.854926

>  <exports>  (505) 
['/opt/xchem-fragalysis-2/maxwin/BulkDock/OUTPUTS/openbind_a71ev2a_c1_knitwork_impure_165VXJF.sdf', '/opt/xchem-fragalysis-2/maxwin/BulkDock/OUTPUTS/openbind_a71ev2a_c1_knitwork_impure_1B07QS4.sdf', '/opt/xchem-fragalysis-2/maxwin/BulkDock/OUTPUTS/openbind_a71ev2a_c1_knitwork_impure_1B07X5R.sdf', '/opt/xchem-fragalysis-2/maxwin/openbind-hippo/a71ev2a/openbind_a71ev2a_c1_scaffold_products.sdf', '/opt/xchem-fragalysis-2/maxwin/openbind-hippo/a71ev2a/cycle_01/bulkdock/openbind_a71ev2a_c1_scaffold_products.sdf', '/opt/xchem-fragalysis-2/maxwin/openbind-hippo/a71ev2a/cycle_01/bulkdock/openbind_a71ev2a_c1_scaffolds.sdf']

>  <fragmenstein_runtime>  (505) 
1.201555

$$$$
C8154-P180
     RDKit          3D

 15 15  0  0  0  0  0  0  0  0999 V2000
   11.0852   14.6898   18.7638 C   0  0  0  0  0  0  0  0  0  0  0  0
   10.1056   15.5332   19.5529 C   0  0  0  0  0  0  0  0  0  0  0  0
   10.2901   15.6335   21.0727 C   0  0  2  0  0  0  0  0  0  0  0  0
   11.5196   14.9577   21.6596 C   0  0  0  0  0  0  0  0  0  0  0  0
    8.7490   15.1556   21.8935 S   0  0  0  0  0  0  0  0  0  0  0  0
    7.8320   16.2687   21.8711 O   0  0  0  0  0  0  0  0  0  0  0  0
    8.3181   13.8418   21.4736 O   0  0  0  0  0  0  0  0  0  0  0  0
    9.2259   15.0338   23.5146 N   0  0  0  0  0  0  0  0  0  0  0  0
    8.2803   14.3037   24.3775 C   0  0  0  0  0  0  0  0  0  0  0  0
    8.8914   12.9736   24.8380 C   0  0  1  0  0  0  0  0  0  0  0  0
    7.7693   11.9484   25.0242 C   0  0  0  0  0  0  0  0  0  0  0  0
    8.3325   10.5758   25.3366 C   0  0  0  0  0  0  0  0  0  0  0  0
    9.4355   10.1353   24.3842 C   0  0  0  0  0  0  0  0  0  0  0  0
   10.5130   11.1248   24.3901 N   0  0  0  0  0  0  0  0  0  0  0  0
    9.9924   12.4131   23.9153 C   0  0  0  0  0  0  0  0  0  0  0  0
  1  2  1  0
  2  3  1  0
  3  4  1  1
  3  5  1  0
  5  6  2  0
  5  7  2  0
  5  8  1  0
  8  9  1  0
 10  9  1  6
 10 11  1  0
 11 12  1  0
 12 13  1  0
 13 14  1  0
 14 15  1  0
 15 10  1  0
M  END
>  <ref_pdb>  (506) 
A3417a

>  <subsites>  (506) 
1 - Active Site

>  <HIPPO Compound ID>  (506) 
25407

>  <energy_score>  (506) 
-25.480069

>  <fragmenstein_mode>  (506) 
expansion

>  <scratch_subdir>  (506) 
/opt/xchem-fragalysis-2/maxwin/BulkDock/SCRATCH/512194/C8154-P180

>  <smiles>  (506) 
CC[C@H](C)S(=O)(=O)NC[C@H]1CCCNC1

>  <alias>  (506) 
C8154-P180

>  <ref_mols>  (506) 
A3417a,A0719a

>  <inspiration_score>  (506) 
None

>  <tags>  (506) 
BulkDock Fragalysis export,fragmenstein_placed,openbind_a71ev2a_c1_knitwork_impure,openbind_a71ev2a_c1_scaffolds

>  <fragmenstein_outcome>  (506) 
acceptable

>  <fragmenstein_error>  (506) 


>  <distance_score>  (506) 
0.97544

>  <inchikey>  (506) 
ICJOJHQESJORQW-UHFFFAOYSA-N

>  <name>  (506) 
C8154-P180

>  <HIPPO Pose ID>  (506) 
347017

>  <Energy>  (506) 
-47.572818

>  <exports>  (506) 
['/opt/xchem-fragalysis-2/maxwin/BulkDock/OUTPUTS/openbind_a71ev2a_c1_knitwork_impure_165VXJF.sdf', '/opt/xchem-fragalysis-2/maxwin/BulkDock/OUTPUTS/openbind_a71ev2a_c1_knitwork_impure_1B07QS4.sdf', '/opt/xchem-fragalysis-2/maxwin/BulkDock/OUTPUTS/openbind_a71ev2a_c1_knitwork_impure_1B07X5R.sdf', '/opt/xchem-fragalysis-2/maxwin/openbind-hippo/a71ev2a/openbind_a71ev2a_c1_scaffold_products.sdf', '/opt/xchem-fragalysis-2/maxwin/openbind-hippo/a71ev2a/cycle_01/bulkdock/openbind_a71ev2a_c1_scaffold_products.sdf', '/opt/xchem-fragalysis-2/maxwin/openbind-hippo/a71ev2a/cycle_01/bulkdock/openbind_a71ev2a_c1_scaffolds.sdf']

>  <fragmenstein_runtime>  (506) 
10.648712

$$$$
C8160-P180
     RDKit          3D

 14 14  0  0  0  0  0  0  0  0999 V2000
   10.9936   11.1165   25.0426 C   0  0  0  0  0  0  0  0  0  0  0  0
    9.6533   10.4292   24.8048 C   0  0  0  0  0  0  0  0  0  0  0  0
    9.7412    9.5900   23.5406 C   0  0  0  0  0  0  0  0  0  0  0  0
    8.5388   11.4743   24.7576 C   0  0  0  0  0  0  0  0  0  0  0  0
    8.9706   12.4577   23.7892 N   0  0  0  0  0  0  0  0  0  0  0  0
    8.0354   13.7822   23.4906 S   0  0  0  0  0  0  0  0  0  0  0  0
    7.0626   13.3052   22.5408 O   0  0  0  0  0  0  0  0  0  0  0  0
    7.7274   14.4118   24.7484 O   0  0  0  0  0  0  0  0  0  0  0  0
    9.2688   14.5776   22.7364 N   0  0  0  0  0  0  0  0  0  0  0  0
   10.4530   14.9657   23.5125 C   0  0  0  0  0  0  0  0  0  0  0  0
   11.6718   14.7148   22.6402 C   0  0  0  0  0  0  0  0  0  0  0  0
   11.5597   15.5212   21.3532 C   0  0  0  0  0  0  0  0  0  0  0  0
   10.2439   15.2489   20.6217 C   0  0  0  0  0  0  0  0  0  0  0  0
    9.0321   15.3958   21.5427 C   0  0  0  0  0  0  0  0  0  0  0  0
  1  2  1  0
  2  3  1  0
  2  4  1  0
  4  5  1  0
  5  6  1  0
  6  7  2  0
  6  8  2  0
  6  9  1  0
  9 10  1  0
 10 11  1  0
 11 12  1  0
 12 13  1  0
 13 14  1  0
 14  9  1  0
M  END
>  <ref_pdb>  (507) 
A3417a

>  <subsites>  (507) 
1 - Active Site

>  <HIPPO Compound ID>  (507) 
3425

>  <energy_score>  (507) 
-50.433226

>  <fragmenstein_mode>  (507) 
expansion

>  <scratch_subdir>  (507) 
/opt/xchem-fragalysis-2/maxwin/BulkDock/SCRATCH/512194/C8160-P180

>  <smiles>  (507) 
CC(C)CNS(=O)(=O)N1CCCCC1

>  <alias>  (507) 
C8160-P180

>  <ref_mols>  (507) 
A3417a,A0719a

>  <inspiration_score>  (507) 
None

>  <tags>  (507) 
BulkDock Fragalysis export,fragmenstein_placed,openbind_a71ev2a_c1_knitwork_impure,openbind_a71ev2a_c1_scaffolds

>  <fragmenstein_outcome>  (507) 
acceptable

>  <fragmenstein_error>  (507) 


>  <distance_score>  (507) 
0.85495

>  <inchikey>  (507) 
QLOQFBVXSCYUGU-UHFFFAOYSA-N

>  <name>  (507) 
C8160-P180

>  <HIPPO Pose ID>  (507) 
347020

>  <Energy>  (507) 
-174.574534

>  <exports>  (507) 
['/opt/xchem-fragalysis-2/maxwin/BulkDock/OUTPUTS/openbind_a71ev2a_c1_knitwork_impure_165VXJF.sdf', '/opt/xchem-fragalysis-2/maxwin/BulkDock/OUTPUTS/openbind_a71ev2a_c1_knitwork_impure_1B07QS4.sdf', '/opt/xchem-fragalysis-2/maxwin/BulkDock/OUTPUTS/openbind_a71ev2a_c1_knitwork_impure_1B07X5R.sdf', '/opt/xchem-fragalysis-2/maxwin/openbind-hippo/a71ev2a/openbind_a71ev2a_c1_scaffold_products.sdf', '/opt/xchem-fragalysis-2/maxwin/openbind-hippo/a71ev2a/cycle_01/bulkdock/openbind_a71ev2a_c1_scaffold_products.sdf', '/opt/xchem-fragalysis-2/maxwin/openbind-hippo/a71ev2a/cycle_01/bulkdock/openbind_a71ev2a_c1_scaffolds.sdf']

>  <fragmenstein_runtime>  (507) 
3.379279

$$$$
C8178-P180
     RDKit          3D

 21 21  0  0  0  0  0  0  0  0999 V2000
    9.8335    9.4165   23.1957 C   0  0  0  0  0  0  0  0  0  0  0  0
   10.1167    9.4831   24.6719 C   0  0  0  0  0  0  0  0  0  0  0  0
   10.2339   10.8434   25.0727 O   0  0  0  0  0  0  0  0  0  0  0  0
    9.0623   11.5222   25.0791 C   0  0  0  0  0  0  0  0  0  0  0  0
    8.0889   11.2171   25.6132 O   0  0  0  0  0  0  0  0  0  0  0  0
    9.3730   12.7156   24.2319 N   0  0  0  0  0  0  0  0  0  0  0  0
    8.5653   13.8924   23.9113 C   0  0  0  0  0  0  0  0  0  0  0  0
    9.5604   14.4775   22.9734 N   0  0  0  0  0  0  0  0  0  0  0  0
   10.7531   15.0748   23.5694 C   0  0  0  0  0  0  0  0  0  0  0  0
   11.8826   14.9061   22.5716 C   0  0  0  0  0  0  0  0  0  0  0  0
   11.5471   15.6500   21.2975 C   0  0  0  0  0  0  0  0  0  0  0  0
   10.1967   15.2289   20.7358 C   0  0  0  0  0  0  0  0  0  0  0  0
    9.0952   15.2145   21.8009 C   0  0  0  0  0  0  0  0  0  0  0  0
    7.1918   13.5060   23.3072 C   0  0  0  0  0  0  0  0  0  0  0  0
    6.3823   12.8956   24.1912 F   0  0  0  0  0  0  0  0  0  0  0  0
    6.5226   14.5550   22.7876 F   0  0  0  0  0  0  0  0  0  0  0  0
    7.3554   12.6458   22.2733 F   0  0  0  0  0  0  0  0  0  0  0  0
    8.1326   14.7399   25.1373 C   0  0  0  0  0  0  0  0  0  0  0  0
    7.4744   14.0393   26.0852 F   0  0  0  0  0  0  0  0  0  0  0  0
    9.2070   15.2870   25.7735 F   0  0  0  0  0  0  0  0  0  0  0  0
    7.3413   15.7719   24.7718 F   0  0  0  0  0  0  0  0  0  0  0  0
  1  2  1  0
  2  3  1  0
  3  4  1  0
  4  5  2  0
  4  6  1  0
  6  7  1  0
  7  8  1  0
  8  9  1  0
  9 10  1  0
 10 11  1  0
 11 12  1  0
 12 13  1  0
  7 14  1  0
 14 15  1  0
 14 16  1  0
 14 17  1  0
  7 18  1  0
 18 19  1  0
 18 20  1  0
 18 21  1  0
 13  8  1  0
M  END
>  <ref_pdb>  (508) 
A3417a

>  <subsites>  (508) 
1 - Active Site

>  <HIPPO Compound ID>  (508) 
6688

>  <energy_score>  (508) 
-35.413013

>  <fragmenstein_mode>  (508) 
expansion

>  <scratch_subdir>  (508) 
/opt/xchem-fragalysis-2/maxwin/BulkDock/SCRATCH/512194/C8178-P180

>  <smiles>  (508) 
CCOC(=O)NC(N1CCCCC1)(C(F)(F)F)C(F)(F)F

>  <alias>  (508) 
C8178-P180

>  <ref_mols>  (508) 
A3417a,A0719a

>  <inspiration_score>  (508) 
None

>  <tags>  (508) 
BulkDock Fragalysis export,fragmenstein_placed,openbind_a71ev2a_c1_knitwork_impure,openbind_a71ev2a_c1_scaffolds

>  <fragmenstein_outcome>  (508) 
acceptable

>  <fragmenstein_error>  (508) 


>  <distance_score>  (508) 
0.920386

>  <inchikey>  (508) 
OKPCGXCBARQEEC-UHFFFAOYSA-N

>  <name>  (508) 
C8178-P180

>  <HIPPO Pose ID>  (508) 
347035

>  <Energy>  (508) 
67.214788

>  <exports>  (508) 
['/opt/xchem-fragalysis-2/maxwin/BulkDock/OUTPUTS/openbind_a71ev2a_c1_knitwork_impure_165VXJF.sdf', '/opt/xchem-fragalysis-2/maxwin/BulkDock/OUTPUTS/openbind_a71ev2a_c1_knitwork_impure_1B07QS4.sdf', '/opt/xchem-fragalysis-2/maxwin/BulkDock/OUTPUTS/openbind_a71ev2a_c1_knitwork_impure_1B07X5R.sdf', '/opt/xchem-fragalysis-2/maxwin/openbind-hippo/a71ev2a/openbind_a71ev2a_c1_scaffold_products.sdf', '/opt/xchem-fragalysis-2/maxwin/openbind-hippo/a71ev2a/cycle_01/bulkdock/openbind_a71ev2a_c1_scaffold_products.sdf', '/opt/xchem-fragalysis-2/maxwin/openbind-hippo/a71ev2a/cycle_01/bulkdock/openbind_a71ev2a_c1_scaffolds.sdf']

>  <fragmenstein_runtime>  (508) 
16.951225

$$$$
C901-P186
     RDKit          3D

 23 26  0  0  0  0  0  0  0  0999 V2000
   25.4763   16.1156   24.6842 O   0  0  0  0  0  0  0  0  0  0  0  0
   24.7373   17.0177   24.7767 C   0  0  0  0  0  0  0  0  0  0  0  0
   25.1030   18.4266   24.3290 C   0  0  0  0  0  0  0  0  0  0  0  0
   24.2385   18.9159   23.1667 C   0  0  0  0  0  0  0  0  0  0  0  0
   24.9318   20.0114   22.3960 C   0  0  0  0  0  0  0  0  0  0  0  0
   24.5651   21.3643   22.5626 C   0  0  0  0  0  0  0  0  0  0  0  0
   25.2251   22.3768   21.8569 C   0  0  0  0  0  0  0  0  0  0  0  0
   26.2410   22.0085   21.0012 C   0  0  0  0  0  0  0  0  0  0  0  0
   26.6057   20.6950   20.8376 C   0  0  0  0  0  0  0  0  0  0  0  0
   25.9734   19.6774   21.5157 C   0  0  0  0  0  0  0  0  0  0  0  0
   27.6280   20.5431   19.9570 O   0  0  0  0  0  0  0  0  0  0  0  0
   27.8347   21.9060   19.5455 C   0  0  0  0  0  0  0  0  0  0  0  0
   26.9877   22.8515   20.2384 O   0  0  0  0  0  0  0  0  0  0  0  0
   23.3025   17.0866   25.3660 N   0  0  0  0  0  0  0  0  0  0  0  0
   22.4997   16.1057   25.8437 C   0  0  0  0  0  0  0  0  0  0  0  0
   22.7240   14.7159   25.8072 C   0  0  0  0  0  0  0  0  0  0  0  0
   21.6016   14.1632   26.3786 C   0  0  0  0  0  0  0  0  0  0  0  0
   20.8157   15.2185   26.7477 N   0  0  0  0  0  0  0  0  0  0  0  0
   19.4758   15.0915   27.3509 C   0  0  0  0  0  0  0  0  0  0  0  0
   19.3664   14.0024   28.4497 C   0  0  0  0  0  0  0  0  0  0  0  0
   18.4748   14.9906   29.2297 C   0  0  0  0  0  0  0  0  0  0  0  0
   19.2122   16.1210   28.4820 C   0  0  0  0  0  0  0  0  0  0  0  0
   21.3360   16.4129   26.4155 N   0  0  0  0  0  0  0  0  0  0  0  0
  1  2  2  0
  2  3  1  0
  3  4  1  0
  4  5  1  0
  5  6  2  0
  6  7  1  0
  7  8  2  0
  8  9  1  0
  9 10  2  0
  9 11  1  0
 11 12  1  0
 12 13  1  0
  2 14  1  0
 14 15  1  0
 15 16  1  0
 16 17  2  0
 17 18  1  0
 18 19  1  0
 19 20  1  0
 20 21  1  0
 21 22  1  0
 18 23  1  0
 10  5  1  0
 23 15  2  0
 13  8  1  0
 22 19  1  0
M  END
>  <ref_pdb>  (509) 
A3483a

>  <subsites>  (509) 
1 - Active Site,5 - A3181/A/202/1

>  <HIPPO Compound ID>  (509) 
4801

>  <energy_score>  (509) 
-33.201765

>  <fragmenstein_mode>  (509) 
expansion

>  <scratch_subdir>  (509) 
/opt/xchem-fragalysis-2/maxwin/BulkDock/SCRATCH/512194/C901-P186

>  <smiles>  (509) 
O=C(CCc1ccc2c(c1)OCO2)Nc1ccn(C2CCC2)n1

>  <alias>  (509) 
C901-P186

>  <ref_mols>  (509) 
A0351b,A3483a

>  <inspiration_score>  (509) 
None

>  <tags>  (509) 
BulkDock Fragalysis export,fragmenstein_placed,openbind_a71ev2a_c1_knitwork_impure,openbind_a71ev2a_c1_scaffolds

>  <fragmenstein_outcome>  (509) 
acceptable

>  <fragmenstein_error>  (509) 


>  <distance_score>  (509) 
0.59967

>  <inchikey>  (509) 
LGOSQMUDZURGMS-UHFFFAOYSA-N

>  <name>  (509) 
C901-P186

>  <HIPPO Pose ID>  (509) 
347823

>  <Energy>  (509) 
1.928971

>  <exports>  (509) 
['/opt/xchem-fragalysis-2/maxwin/BulkDock/OUTPUTS/openbind_a71ev2a_c1_knitwork_impure_165VXJF.sdf', '/opt/xchem-fragalysis-2/maxwin/BulkDock/OUTPUTS/openbind_a71ev2a_c1_knitwork_impure_1B07QS4.sdf', '/opt/xchem-fragalysis-2/maxwin/BulkDock/OUTPUTS/openbind_a71ev2a_c1_knitwork_impure_1B07X5R.sdf', '/opt/xchem-fragalysis-2/maxwin/openbind-hippo/a71ev2a/openbind_a71ev2a_c1_scaffold_products.sdf', '/opt/xchem-fragalysis-2/maxwin/openbind-hippo/a71ev2a/cycle_01/bulkdock/openbind_a71ev2a_c1_scaffold_products.sdf', '/opt/xchem-fragalysis-2/maxwin/openbind-hippo/a71ev2a/cycle_01/bulkdock/openbind_a71ev2a_c1_scaffolds.sdf']

>  <fragmenstein_runtime>  (509) 
47.299869

$$$$
C2414-P180
     RDKit          3D

 16 16  0  0  0  0  0  0  0  0999 V2000
    9.9477    9.2540   22.9848 C   0  0  0  0  0  0  0  0  0  0  0  0
    9.5291    9.6874   24.0164 C   0  0  0  0  0  0  0  0  0  0  0  0
    8.9582   10.2409   25.2280 C   0  0  0  0  0  0  0  0  0  0  0  0
    8.2422   11.5467   25.0033 C   0  0  0  0  0  0  0  0  0  0  0  0
    9.2000   12.5985   24.4810 C   0  0  0  0  0  0  0  0  0  0  0  0
   10.4190   12.4146   24.6029 O   0  0  0  0  0  0  0  0  0  0  0  0
    8.5575   13.9433   23.9322 C   0  0  1  0  0  0  0  0  0  0  0  0
    7.2699   13.6070   23.1543 C   0  0  0  0  0  0  0  0  0  0  0  0
    8.2242   14.8213   25.1799 C   0  0  0  0  0  0  0  0  0  0  0  0
    7.0552   15.7877   25.0306 C   0  0  0  0  0  0  0  0  0  0  0  0
    9.5544   14.5182   23.0143 N   0  0  0  0  0  0  0  0  0  0  0  0
   10.7817   15.0400   23.6077 C   0  0  0  0  0  0  0  0  0  0  0  0
   11.9137   14.8043   22.6265 C   0  0  0  0  0  0  0  0  0  0  0  0
   11.6429   15.5555   21.3388 C   0  0  0  0  0  0  0  0  0  0  0  0
   10.2742   15.2108   20.7722 C   0  0  0  0  0  0  0  0  0  0  0  0
    9.1660   15.2817   21.8286 C   0  0  0  0  0  0  0  0  0  0  0  0
  1  2  3  0
  2  3  1  0
  3  4  1  0
  4  5  1  0
  5  6  2  0
  5  7  1  0
  7  8  1  6
  7  9  1  0
  9 10  1  0
  7 11  1  0
 11 12  1  0
 12 13  1  0
 13 14  1  0
 14 15  1  0
 15 16  1  0
 16 11  1  0
M  END
>  <ref_pdb>  (510) 
A3417a

>  <subsites>  (510) 
1 - Active Site

>  <HIPPO Compound ID>  (510) 
12392

>  <energy_score>  (510) 
-27.839529

>  <fragmenstein_mode>  (510) 
expansion

>  <scratch_subdir>  (510) 
/opt/xchem-fragalysis-2/maxwin/BulkDock/SCRATCH/512194/C2414-P180

>  <smiles>  (510) 
C#CCCC(=O)[C@@](C)(CC)N1CCCCC1

>  <alias>  (510) 
C2414-P180

>  <ref_mols>  (510) 
A1775a,A3417a

>  <inspiration_score>  (510) 
None

>  <tags>  (510) 
BulkDock Fragalysis export,fragmenstein_placed,openbind_a71ev2a_c1_knitwork_impure,openbind_a71ev2a_c1_scaffolds

>  <fragmenstein_outcome>  (510) 
acceptable

>  <fragmenstein_error>  (510) 


>  <distance_score>  (510) 
0.957523

>  <inchikey>  (510) 
ZQPQFOMHEKOXNL-UHFFFAOYSA-N

>  <name>  (510) 
C2414-P180

>  <HIPPO Pose ID>  (510) 
347864

>  <Energy>  (510) 
60.134271

>  <exports>  (510) 
['/opt/xchem-fragalysis-2/maxwin/BulkDock/OUTPUTS/openbind_a71ev2a_c1_knitwork_impure_165VXJF.sdf', '/opt/xchem-fragalysis-2/maxwin/BulkDock/OUTPUTS/openbind_a71ev2a_c1_knitwork_impure_1B07QS4.sdf', '/opt/xchem-fragalysis-2/maxwin/BulkDock/OUTPUTS/openbind_a71ev2a_c1_knitwork_impure_1B07X5R.sdf', '/opt/xchem-fragalysis-2/maxwin/openbind-hippo/a71ev2a/openbind_a71ev2a_c1_scaffold_products.sdf', '/opt/xchem-fragalysis-2/maxwin/openbind-hippo/a71ev2a/cycle_01/bulkdock/openbind_a71ev2a_c1_scaffold_products.sdf', '/opt/xchem-fragalysis-2/maxwin/openbind-hippo/a71ev2a/cycle_01/bulkdock/openbind_a71ev2a_c1_scaffolds.sdf']

>  <fragmenstein_runtime>  (510) 
20.669753

$$$$
C10375-P494
     RDKit          3D

 21 24  0  0  0  0  0  0  0  0999 V2000
   20.0318   -2.9264   27.5572 C   0  0  0  0  0  0  0  0  0  0  0  0
   21.2859   -2.3474   27.7661 C   0  0  0  0  0  0  0  0  0  0  0  0
   21.9426   -1.7035   26.7184 C   0  0  0  0  0  0  0  0  0  0  0  0
   23.1650   -1.0954   26.7806 O   0  0  0  0  0  0  0  0  0  0  0  0
   23.9181   -1.1900   27.9919 C   0  0  0  0  0  0  0  0  0  0  0  0
   25.3686   -0.8323   27.6691 C   0  0  0  0  0  0  0  0  0  0  0  0
   25.3842    0.6924   27.5871 C   0  0  0  0  0  0  0  0  0  0  0  0
   24.1915    1.1725   28.4118 C   0  0  0  0  0  0  0  0  0  0  0  0
   23.5319   -0.0852   28.9723 C   0  0  0  0  0  0  0  0  0  0  0  0
   21.3285   -1.6362   25.4629 C   0  0  0  0  0  0  0  0  0  0  0  0
   20.0673   -2.2065   25.2417 C   0  0  0  0  0  0  0  0  0  0  0  0
   19.4154   -2.1347   23.9196 C   0  0  0  0  0  0  0  0  0  0  0  0
   18.9197   -3.3215   23.2072 C   0  0  0  0  0  0  0  0  0  0  0  0
   18.2750   -3.2358   22.0269 C   0  0  0  0  0  0  0  0  0  0  0  0
   18.0613   -1.9615   21.4415 C   0  0  0  0  0  0  0  0  0  0  0  0
   17.4425   -1.5645   20.3502 N   0  0  0  0  0  0  0  0  0  0  0  0
   17.5371   -0.1919   20.2907 N   0  0  0  0  0  0  0  0  0  0  0  0
   18.2200    0.2111   21.3406 C   0  0  0  0  0  0  0  0  0  0  0  0
   18.5604   -0.8606   22.1166 N   0  0  0  0  0  0  0  0  0  0  0  0
   19.2245   -0.9306   23.3366 C   0  0  0  0  0  0  0  0  0  0  0  0
   19.4269   -2.8587   26.3020 C   0  0  0  0  0  0  0  0  0  0  0  0
  1  2  2  0
  2  3  1  0
  3  4  1  0
  4  5  1  0
  5  6  1  0
  6  7  1  0
  7  8  1  0
  8  9  1  0
  3 10  2  0
 10 11  1  0
 11 12  1  0
 12 13  1  0
 13 14  2  0
 14 15  1  0
 15 16  2  0
 16 17  1  0
 17 18  2  0
 18 19  1  0
 19 20  1  0
 11 21  2  0
 21  1  1  0
  9  5  1  0
 20 12  2  0
 19 15  1  0
M  END
>  <ref_pdb>  (511) 
A4874a

>  <subsites>  (511) 
1 - Active Site,2 - A3977/A/202/1

>  <HIPPO Compound ID>  (511) 
18178

>  <energy_score>  (511) 
-32.634615

>  <fragmenstein_mode>  (511) 
expansion

>  <scratch_subdir>  (511) 
/opt/xchem-fragalysis-2/maxwin/BulkDock/SCRATCH/512194/C10375-P494

>  <smiles>  (511) 
c1cc(OC2CCCC2)cc(-c2ccc3nncn3c2)c1

>  <alias>  (511) 
C10375-P494

>  <ref_mols>  (511) 
A1293a,A4874a

>  <inspiration_score>  (511) 
None

>  <tags>  (511) 
BulkDock Fragalysis export,fragmenstein_placed,openbind_a71ev2a_c1_knitwork_impure,openbind_a71ev2a_c1_scaffolds

>  <fragmenstein_outcome>  (511) 
acceptable

>  <fragmenstein_error>  (511) 


>  <distance_score>  (511) 
0.200648

>  <inchikey>  (511) 
YSYAKSZYKZXPDR-UHFFFAOYSA-N

>  <name>  (511) 
C10375-P494

>  <HIPPO Pose ID>  (511) 
347923

>  <Energy>  (511) 
49.810445

>  <exports>  (511) 
['/opt/xchem-fragalysis-2/maxwin/BulkDock/OUTPUTS/openbind_a71ev2a_c1_knitwork_impure_165VXJF.sdf', '/opt/xchem-fragalysis-2/maxwin/BulkDock/OUTPUTS/openbind_a71ev2a_c1_knitwork_impure_1B07QS4.sdf', '/opt/xchem-fragalysis-2/maxwin/BulkDock/OUTPUTS/openbind_a71ev2a_c1_knitwork_impure_1B07X5R.sdf', '/opt/xchem-fragalysis-2/maxwin/openbind-hippo/a71ev2a/openbind_a71ev2a_c1_scaffold_products.sdf', '/opt/xchem-fragalysis-2/maxwin/openbind-hippo/a71ev2a/cycle_01/bulkdock/openbind_a71ev2a_c1_scaffold_products.sdf', '/opt/xchem-fragalysis-2/maxwin/openbind-hippo/a71ev2a/cycle_01/bulkdock/openbind_a71ev2a_c1_scaffolds.sdf']

>  <fragmenstein_runtime>  (511) 
19.490892

$$$$
C7518-P37
     RDKit          3D

 15 15  0  0  0  0  0  0  0  0999 V2000
   11.6757   14.3537   18.8928 C   0  0  0  0  0  0  0  0  0  0  0  0
   10.7255   14.8657   19.9544 C   0  0  0  0  0  0  0  0  0  0  0  0
    9.7755   15.9054   19.3381 C   0  0  0  0  0  0  0  0  0  0  0  0
   11.3637   15.4581   21.2147 C   0  0  0  0  0  0  0  0  0  0  0  0
   12.7808   15.1365   21.6627 C   0  0  0  0  0  0  0  0  0  0  0  0
   12.8024   14.5139   22.9405 O   0  0  0  0  0  0  0  0  0  0  0  0
   12.2967   13.1900   22.8588 C   0  0  0  0  0  0  0  0  0  0  0  0
   10.9973   13.1036   23.6425 C   0  0  0  0  0  0  0  0  0  0  0  0
   10.1391   11.9958   23.2077 N   0  0  0  0  0  0  0  0  0  0  0  0
    9.2717   11.5948   24.3089 C   0  0  1  0  0  0  0  0  0  0  0  0
    8.0945   12.5475   24.5167 C   0  0  0  0  0  0  0  0  0  0  0  0
    7.3093   12.1385   25.7573 C   0  0  0  0  0  0  0  0  0  0  0  0
    6.9594   10.6647   25.7645 C   0  0  0  0  0  0  0  0  0  0  0  0
    8.0312    9.7662   25.3805 N   0  0  0  0  0  0  0  0  0  0  0  0
    8.8165   10.1409   24.2143 C   0  0  0  0  0  0  0  0  0  0  0  0
  1  2  1  0
  2  3  1  0
  2  4  1  0
  4  5  1  0
  5  6  1  0
  6  7  1  0
  7  8  1  0
  8  9  1  0
 10  9  1  6
 10 11  1  0
 11 12  1  0
 12 13  1  0
 13 14  1  0
 14 15  1  0
 15 10  1  0
M  END
>  <ref_pdb>  (512) 
A0310a

>  <subsites>  (512) 
1 - Active Site

>  <HIPPO Compound ID>  (512) 
7467

>  <energy_score>  (512) 
-30.313824

>  <fragmenstein_mode>  (512) 
expansion

>  <scratch_subdir>  (512) 
/opt/xchem-fragalysis-2/maxwin/BulkDock/SCRATCH/512194/C7518-P37

>  <smiles>  (512) 
CC(C)CCOCCN[C@H]1CCCNC1

>  <alias>  (512) 
C7518-P37

>  <ref_mols>  (512) 
A4456a,A4873a,A0310a,A3222a

>  <inspiration_score>  (512) 
None

>  <tags>  (512) 
BulkDock Fragalysis export,fragmenstein_placed,openbind_a71ev2a_c1_knitwork_impure,openbind_a71ev2a_c1_scaffolds

>  <fragmenstein_outcome>  (512) 
acceptable

>  <fragmenstein_error>  (512) 


>  <distance_score>  (512) 
0.978637

>  <inchikey>  (512) 
UICBVSXZBKLTCN-UHFFFAOYSA-N

>  <name>  (512) 
C7518-P37

>  <HIPPO Pose ID>  (512) 
348677

>  <Energy>  (512) 
67.749118

>  <exports>  (512) 
['/opt/xchem-fragalysis-2/maxwin/BulkDock/OUTPUTS/openbind_a71ev2a_c1_knitwork_impure_165VXJF.sdf', '/opt/xchem-fragalysis-2/maxwin/BulkDock/OUTPUTS/openbind_a71ev2a_c1_knitwork_impure_1B07QS4.sdf', '/opt/xchem-fragalysis-2/maxwin/BulkDock/OUTPUTS/openbind_a71ev2a_c1_knitwork_impure_1B07X5R.sdf', '/opt/xchem-fragalysis-2/maxwin/openbind-hippo/a71ev2a/openbind_a71ev2a_c1_scaffold_products.sdf', '/opt/xchem-fragalysis-2/maxwin/openbind-hippo/a71ev2a/cycle_01/bulkdock/openbind_a71ev2a_c1_scaffold_products.sdf', '/opt/xchem-fragalysis-2/maxwin/openbind-hippo/a71ev2a/cycle_01/bulkdock/openbind_a71ev2a_c1_scaffolds.sdf']

>  <fragmenstein_runtime>  (512) 
7.200558

$$$$
C18171-P252
     RDKit          3D

 15 15  0  0  0  0  0  0  0  0999 V2000
    9.9801   15.5182   23.8259 C   0  0  0  0  0  0  0  0  0  0  0  0
    8.9006   15.1690   22.7899 C   0  0  0  0  0  0  0  0  0  0  0  0
    7.6262   16.0263   22.9762 C   0  0  0  0  0  0  0  0  0  0  0  0
    8.5382   13.6771   22.9422 C   0  0  0  0  0  0  0  0  0  0  0  0
    7.9292   13.2326   24.2788 C   0  0  0  0  0  0  0  0  0  0  0  0
    7.3908   14.0056   25.0663 O   0  0  0  0  0  0  0  0  0  0  0  0
    7.9158   11.8021   24.5421 C   0  0  0  0  0  0  0  0  0  0  0  0
    8.7218   10.7644   24.0279 C   0  0  0  0  0  0  0  0  0  0  0  0
    8.3319    9.5620   24.4525 N   0  0  0  0  0  0  0  0  0  0  0  0
    7.2948    9.8249   25.2551 N   0  0  0  0  0  0  0  0  0  0  0  0
    7.0287   11.1510   25.3754 C   0  0  0  0  0  0  0  0  0  0  0  0
    9.4094   15.4628   21.3438 C   0  0  0  0  0  0  0  0  0  0  0  0
   10.7869   14.9487   20.9609 C   0  0  0  0  0  0  0  0  0  0  0  0
   11.0078   15.2399   19.6561 F   0  0  0  0  0  0  0  0  0  0  0  0
   11.7435   15.5884   21.6765 F   0  0  0  0  0  0  0  0  0  0  0  0
  1  2  1  0
  2  3  1  0
  2  4  1  0
  4  5  1  0
  5  6  2  0
  5  7  1  0
  7  8  1  0
  8  9  2  0
  9 10  1  0
 10 11  1  0
  2 12  1  0
 12 13  1  0
 13 14  1  0
 13 15  1  0
 11  7  2  0
M  END
>  <ref_pdb>  (513) 
A3975a

>  <subsites>  (513) 
1 - Active Site

>  <HIPPO Compound ID>  (513) 
15058

>  <energy_score>  (513) 
-24.202973

>  <fragmenstein_mode>  (513) 
expansion

>  <scratch_subdir>  (513) 
/opt/xchem-fragalysis-2/maxwin/BulkDock/SCRATCH/512194/C18171-P252

>  <smiles>  (513) 
CC(C)(CC(=O)c1cn[nH]c1)CC(F)F

>  <alias>  (513) 
C18171-P252

>  <ref_mols>  (513) 
A0556a,A3975a

>  <inspiration_score>  (513) 
None

>  <tags>  (513) 
BulkDock Fragalysis export,fragmenstein_placed,openbind_a71ev2a_c1_knitwork_impure,openbind_a71ev2a_c1_scaffolds

>  <fragmenstein_outcome>  (513) 
acceptable

>  <fragmenstein_error>  (513) 


>  <distance_score>  (513) 
0.748996

>  <inchikey>  (513) 
OHSAREOUZZCQAJ-UHFFFAOYSA-N

>  <name>  (513) 
C18171-P252

>  <HIPPO Pose ID>  (513) 
349067

>  <Energy>  (513) 
43.547205

>  <exports>  (513) 
['/opt/xchem-fragalysis-2/maxwin/BulkDock/OUTPUTS/openbind_a71ev2a_c1_knitwork_impure_165VXJF.sdf', '/opt/xchem-fragalysis-2/maxwin/BulkDock/OUTPUTS/openbind_a71ev2a_c1_knitwork_impure_1B07QS4.sdf', '/opt/xchem-fragalysis-2/maxwin/BulkDock/OUTPUTS/openbind_a71ev2a_c1_knitwork_impure_1B07X5R.sdf', '/opt/xchem-fragalysis-2/maxwin/openbind-hippo/a71ev2a/openbind_a71ev2a_c1_scaffold_products.sdf', '/opt/xchem-fragalysis-2/maxwin/openbind-hippo/a71ev2a/cycle_01/bulkdock/openbind_a71ev2a_c1_scaffold_products.sdf', '/opt/xchem-fragalysis-2/maxwin/openbind-hippo/a71ev2a/cycle_01/bulkdock/openbind_a71ev2a_c1_scaffolds.sdf']

>  <fragmenstein_runtime>  (513) 
15.440394

$$$$
C18177-P252
     RDKit          3D

 11 11  0  0  0  0  0  0  0  0999 V2000
    9.8602   14.7254   23.0658 C   0  0  0  0  0  0  0  0  0  0  0  0
    8.4235   14.2392   23.0786 C   0  0  0  0  0  0  0  0  0  0  0  0
    8.0863   13.5208   24.3738 C   0  0  0  0  0  0  0  0  0  0  0  0
    7.7267   14.1131   25.4755 N   0  0  0  0  0  0  0  0  0  0  0  0
    7.7092   15.5079   25.3255 O   0  0  0  0  0  0  0  0  0  0  0  0
    7.2939   16.0922   26.5529 C   0  0  0  0  0  0  0  0  0  0  0  0
    8.1653   12.0709   24.4342 C   0  0  0  0  0  0  0  0  0  0  0  0
    7.3824   11.1832   25.2061 C   0  0  0  0  0  0  0  0  0  0  0  0
    7.7050    9.9010   25.0147 N   0  0  0  0  0  0  0  0  0  0  0  0
    8.7201    9.9595   24.1333 N   0  0  0  0  0  0  0  0  0  0  0  0
    9.0234   11.2361   23.7470 C   0  0  0  0  0  0  0  0  0  0  0  0
  1  2  1  0
  2  3  1  0
  3  4  2  3
  4  5  1  0
  5  6  1  0
  3  7  1  0
  7  8  1  0
  8  9  2  0
  9 10  1  0
 10 11  1  0
 11  7  2  0
M  END
>  <ref_pdb>  (514) 
A3975a

>  <subsites>  (514) 
1 - Active Site

>  <HIPPO Compound ID>  (514) 
6003

>  <energy_score>  (514) 
-22.470595

>  <fragmenstein_mode>  (514) 
expansion

>  <scratch_subdir>  (514) 
/opt/xchem-fragalysis-2/maxwin/BulkDock/SCRATCH/512194/C18177-P252

>  <smiles>  (514) 
CCC(=NOC)c1cn[nH]c1

>  <alias>  (514) 
C18177-P252

>  <ref_mols>  (514) 
A0556a,A3975a

>  <inspiration_score>  (514) 
None

>  <tags>  (514) 
BulkDock Fragalysis export,fragmenstein_placed,openbind_a71ev2a_c1_knitwork_impure,openbind_a71ev2a_c1_scaffolds

>  <fragmenstein_outcome>  (514) 
acceptable

>  <fragmenstein_error>  (514) 


>  <distance_score>  (514) 
0.788584

>  <inchikey>  (514) 
NBQUOSUMIDGENX-UHFFFAOYSA-N

>  <name>  (514) 
C18177-P252

>  <HIPPO Pose ID>  (514) 
349071

>  <Energy>  (514) 
33.03752

>  <exports>  (514) 
['/opt/xchem-fragalysis-2/maxwin/BulkDock/OUTPUTS/openbind_a71ev2a_c1_knitwork_impure_165VXJF.sdf', '/opt/xchem-fragalysis-2/maxwin/BulkDock/OUTPUTS/openbind_a71ev2a_c1_knitwork_impure_1B07QS4.sdf', '/opt/xchem-fragalysis-2/maxwin/BulkDock/OUTPUTS/openbind_a71ev2a_c1_knitwork_impure_1B07X5R.sdf', '/opt/xchem-fragalysis-2/maxwin/openbind-hippo/a71ev2a/openbind_a71ev2a_c1_scaffold_products.sdf', '/opt/xchem-fragalysis-2/maxwin/openbind-hippo/a71ev2a/cycle_01/bulkdock/openbind_a71ev2a_c1_scaffold_products.sdf', '/opt/xchem-fragalysis-2/maxwin/openbind-hippo/a71ev2a/cycle_01/bulkdock/openbind_a71ev2a_c1_scaffolds.sdf']

>  <fragmenstein_runtime>  (514) 
1.649782

$$$$
C2382-P373
     RDKit          3D

 15 15  0  0  0  0  0  0  0  0999 V2000
    7.1661    9.9031   25.6831 C   0  0  0  0  0  0  0  0  0  0  0  0
    8.2975   10.7393   25.1139 C   0  0  0  0  0  0  0  0  0  0  0  0
    9.0545   10.0071   24.0018 C   0  0  0  0  0  0  0  0  0  0  0  0
    7.8016   12.1124   24.6889 C   0  0  0  0  0  0  0  0  0  0  0  0
    8.9356   13.0927   24.4509 C   0  0  0  0  0  0  0  0  0  0  0  0
   10.0421   12.8473   24.9487 O   0  0  0  0  0  0  0  0  0  0  0  0
    8.6051   14.4259   23.6765 C   0  0  0  0  0  0  0  0  0  0  0  0
    7.3015   14.2703   22.8629 C   0  0  0  0  0  0  0  0  0  0  0  0
    8.3482   15.5120   24.7416 C   0  0  0  0  0  0  0  0  0  0  0  0
    9.7615   14.7191   22.7839 N   0  0  0  0  0  0  0  0  0  0  0  0
   10.9339   15.2685   23.4855 C   0  0  0  0  0  0  0  0  0  0  0  0
   12.1564   15.1547   22.5906 C   0  0  0  0  0  0  0  0  0  0  0  0
   11.9682   15.9762   21.3281 C   0  0  0  0  0  0  0  0  0  0  0  0
   10.6857   15.5616   20.6275 C   0  0  0  0  0  0  0  0  0  0  0  0
    9.4876   15.5318   21.5828 C   0  0  0  0  0  0  0  0  0  0  0  0
  1  2  1  0
  2  3  1  0
  2  4  1  0
  4  5  1  0
  5  6  2  0
  5  7  1  0
  7  8  1  0
  7  9  1  0
  7 10  1  0
 10 11  1  0
 11 12  1  0
 12 13  1  0
 13 14  1  0
 14 15  1  0
 15 10  1  0
M  END
>  <ref_pdb>  (515) 
A4461a

>  <subsites>  (515) 
1 - Active Site

>  <HIPPO Compound ID>  (515) 
12390

>  <energy_score>  (515) 
-39.351634

>  <fragmenstein_mode>  (515) 
expansion

>  <scratch_subdir>  (515) 
/opt/xchem-fragalysis-2/maxwin/BulkDock/SCRATCH/512194/C2382-P373

>  <smiles>  (515) 
CC(C)CC(=O)C(C)(C)N1CCCCC1

>  <alias>  (515) 
C2382-P373

>  <ref_mols>  (515) 
A1779a,A4461a

>  <inspiration_score>  (515) 
None

>  <tags>  (515) 
BulkDock Fragalysis export,fragmenstein_placed,openbind_a71ev2a_c1_knitwork_impure,openbind_a71ev2a_c1_scaffolds

>  <fragmenstein_outcome>  (515) 
acceptable

>  <fragmenstein_error>  (515) 


>  <distance_score>  (515) 
0.921795

>  <inchikey>  (515) 
TVRSJPQUTNYHJL-UHFFFAOYSA-N

>  <name>  (515) 
C2382-P373

>  <HIPPO Pose ID>  (515) 
349112

>  <Energy>  (515) 
56.582359

>  <exports>  (515) 
['/opt/xchem-fragalysis-2/maxwin/BulkDock/OUTPUTS/openbind_a71ev2a_c1_knitwork_impure_165VXJF.sdf', '/opt/xchem-fragalysis-2/maxwin/BulkDock/OUTPUTS/openbind_a71ev2a_c1_knitwork_impure_1B07QS4.sdf', '/opt/xchem-fragalysis-2/maxwin/BulkDock/OUTPUTS/openbind_a71ev2a_c1_knitwork_impure_1B07X5R.sdf', '/opt/xchem-fragalysis-2/maxwin/openbind-hippo/a71ev2a/openbind_a71ev2a_c1_scaffold_products.sdf', '/opt/xchem-fragalysis-2/maxwin/openbind-hippo/a71ev2a/cycle_01/bulkdock/openbind_a71ev2a_c1_scaffold_products.sdf', '/opt/xchem-fragalysis-2/maxwin/openbind-hippo/a71ev2a/cycle_01/bulkdock/openbind_a71ev2a_c1_scaffolds.sdf']

>  <fragmenstein_runtime>  (515) 
7.774697

$$$$
C542-P445
     RDKit          3D

 19 22  0  0  0  0  0  0  0  0999 V2000
   27.2151   20.0846   21.7364 C   0  0  0  0  0  0  0  0  0  0  0  0
   28.3203   20.4401   20.9696 C   0  0  0  0  0  0  0  0  0  0  0  0
   28.1685   21.1937   19.8006 C   0  0  0  0  0  0  0  0  0  0  0  0
   26.8725   21.5800   19.4193 C   0  0  0  0  0  0  0  0  0  0  0  0
   26.3617   22.4927   18.0581 S   0  0  0  0  0  0  0  0  0  0  0  0
   24.7131   22.3983   18.5803 C   0  0  0  0  0  0  0  0  0  0  0  0
   23.6813   23.0663   17.9713 N   0  0  0  0  0  0  0  0  0  0  0  0
   23.7059   23.2986   16.5194 C   0  0  0  0  0  0  0  0  0  0  0  0
   22.6314   24.3346   16.1057 C   0  0  0  0  0  0  0  0  0  0  0  0
   21.2622   23.9862   16.5807 N   0  0  0  0  0  0  0  0  0  0  0  0
   20.3393   25.0830   16.2376 C   0  0  0  0  0  0  0  0  0  0  0  0
   20.0468   25.0873   14.7130 C   0  0  0  0  0  0  0  0  0  0  0  0
   18.5657   25.3169   15.0809 C   0  0  0  0  0  0  0  0  0  0  0  0
   18.8721   24.6064   16.4160 C   0  0  0  0  0  0  0  0  0  0  0  0
   21.3277   23.8522   18.0565 C   0  0  0  0  0  0  0  0  0  0  0  0
   22.3407   22.7796   18.5029 C   0  0  0  0  0  0  0  0  0  0  0  0
   24.5455   21.6943   19.6817 N   0  0  0  0  0  0  0  0  0  0  0  0
   25.7534   21.2351   20.1715 C   0  0  0  0  0  0  0  0  0  0  0  0
   25.9300   20.4766   21.3477 C   0  0  0  0  0  0  0  0  0  0  0  0
  1  2  2  0
  2  3  1  0
  3  4  2  0
  4  5  1  0
  5  6  1  0
  6  7  1  0
  7  8  1  0
  8  9  1  0
  9 10  1  0
 10 11  1  0
 11 12  1  0
 12 13  1  0
 13 14  1  0
 10 15  1  0
 15 16  1  0
  6 17  2  0
 17 18  1  0
 18 19  2  0
 19  1  1  0
 18  4  1  0
 16  7  1  0
 14 11  1  0
M  END
>  <ref_pdb>  (516) 
A4715a

>  <subsites>  (516) 
1 - Active Site,5 - A3181/A/202/1

>  <HIPPO Compound ID>  (516) 
2421

>  <energy_score>  (516) 
-66.598653

>  <fragmenstein_mode>  (516) 
expansion

>  <scratch_subdir>  (516) 
/opt/xchem-fragalysis-2/maxwin/BulkDock/SCRATCH/512194/C542-P445

>  <smiles>  (516) 
c1ccc2sc(N3CCN(C4CCC4)CC3)nc2c1

>  <alias>  (516) 
C542-P445

>  <ref_mols>  (516) 
A0514b,A4715a

>  <inspiration_score>  (516) 
None

>  <tags>  (516) 
BulkDock Fragalysis export,fragmenstein_placed,openbind_a71ev2a_c1_knitwork_impure,openbind_a71ev2a_c1_scaffolds

>  <fragmenstein_outcome>  (516) 
acceptable

>  <fragmenstein_error>  (516) 


>  <distance_score>  (516) 
0.595714

>  <inchikey>  (516) 
MZDOVACAPIIERT-UHFFFAOYSA-N

>  <name>  (516) 
C542-P445

>  <HIPPO Pose ID>  (516) 
350128

>  <Energy>  (516) 
74.558901

>  <exports>  (516) 
['/opt/xchem-fragalysis-2/maxwin/BulkDock/OUTPUTS/openbind_a71ev2a_c1_knitwork_impure_165VXJF.sdf', '/opt/xchem-fragalysis-2/maxwin/BulkDock/OUTPUTS/openbind_a71ev2a_c1_knitwork_impure_1B07QS4.sdf', '/opt/xchem-fragalysis-2/maxwin/BulkDock/OUTPUTS/openbind_a71ev2a_c1_knitwork_impure_1B07X5R.sdf', '/opt/xchem-fragalysis-2/maxwin/openbind-hippo/a71ev2a/openbind_a71ev2a_c1_scaffold_products.sdf', '/opt/xchem-fragalysis-2/maxwin/openbind-hippo/a71ev2a/cycle_01/bulkdock/openbind_a71ev2a_c1_scaffold_products.sdf', '/opt/xchem-fragalysis-2/maxwin/openbind-hippo/a71ev2a/cycle_01/bulkdock/openbind_a71ev2a_c1_scaffolds.sdf']

>  <fragmenstein_runtime>  (516) 
20.758304

$$$$
C14594-P615
     RDKit          3D

 23 24  0  0  0  0  0  0  0  0999 V2000
    6.9242   -9.1329   11.2690 C   0  0  0  0  0  0  0  0  0  0  0  0
    7.9982   -8.3501   10.5067 C   0  0  0  0  0  0  0  0  0  0  0  0
    8.2986   -9.0778    9.1859 C   0  0  0  0  0  0  0  0  0  0  0  0
    8.9702   -8.1726    8.2998 O   0  0  0  0  0  0  0  0  0  0  0  0
    7.4995   -6.9405   10.1523 C   0  0  0  0  0  0  0  0  0  0  0  0
    6.6484   -6.9572    9.0140 O   0  0  0  0  0  0  0  0  0  0  0  0
    9.1712   -8.1907   11.3692 N   0  0  0  0  0  0  0  0  0  0  0  0
   10.4168   -9.0979   11.5488 C   0  0  0  0  0  0  0  0  0  0  0  0
   10.7243  -10.0453   10.9940 O   0  0  0  0  0  0  0  0  0  0  0  0
   11.1381   -8.3216   12.6908 N   0  0  0  0  0  0  0  0  0  0  0  0
   12.3840   -8.5257   13.2688 C   0  0  0  0  0  0  0  0  0  0  0  0
   13.2367   -9.5271   12.8357 C   0  0  0  0  0  0  0  0  0  0  0  0
   14.4079   -9.7113   13.5470 C   0  0  0  0  0  0  0  0  0  0  0  0
   14.7583   -8.9977   14.6426 N   0  0  0  0  0  0  0  0  0  0  0  0
   13.9316   -8.0061   15.0022 C   0  0  0  0  0  0  0  0  0  0  0  0
   14.1147   -7.3924   16.2294 O   0  0  0  0  0  0  0  0  0  0  0  0
   15.4679   -7.0292   16.5359 C   0  0  0  0  0  0  0  0  0  0  0  0
   16.2185   -8.0713   17.3534 C   0  0  0  0  0  0  0  0  0  0  0  0
   17.6209   -7.5671   17.6880 C   0  0  0  0  0  0  0  0  0  0  0  0
   17.5602   -6.3073   18.5362 C   0  0  0  0  0  0  0  0  0  0  0  0
   16.7379   -5.2203   17.8581 C   0  0  0  0  0  0  0  0  0  0  0  0
   15.3880   -5.7207   17.3412 C   0  0  0  0  0  0  0  0  0  0  0  0
   12.7449   -7.7316   14.3505 C   0  0  0  0  0  0  0  0  0  0  0  0
  1  2  1  0
  2  3  1  0
  3  4  1  0
  2  5  1  0
  5  6  1  0
  2  7  1  0
  7  8  1  0
  8  9  2  0
  8 10  1  0
 10 11  1  0
 11 12  2  0
 12 13  1  0
 13 14  2  0
 14 15  1  0
 15 16  1  0
 16 17  1  0
 17 18  1  0
 18 19  1  0
 19 20  1  0
 20 21  1  0
 21 22  1  0
 15 23  2  0
 23 11  1  0
 22 17  1  0
M  END
>  <ref_pdb>  (517) 
A5424a

>  <subsites>  (517) 
1 - Active Site,2 - A3977/A/202/1

>  <HIPPO Compound ID>  (517) 
7492

>  <energy_score>  (517) 
-22.693845

>  <fragmenstein_mode>  (517) 
expansion

>  <scratch_subdir>  (517) 
/opt/xchem-fragalysis-2/maxwin/BulkDock/SCRATCH/512194/C14594-P615

>  <smiles>  (517) 
CC(CO)(CO)NC(=O)Nc1ccnc(OC2CCCCC2)c1

>  <alias>  (517) 
C14594-P615

>  <ref_mols>  (517) 
A0395a,A5424a

>  <inspiration_score>  (517) 
None

>  <tags>  (517) 
BulkDock Fragalysis export,fragmenstein_placed,openbind_a71ev2a_c1_knitwork_impure,openbind_a71ev2a_c1_scaffolds

>  <fragmenstein_outcome>  (517) 
acceptable

>  <fragmenstein_error>  (517) 


>  <distance_score>  (517) 
0.817277

>  <inchikey>  (517) 
GKUFWTQUJZVHEF-UHFFFAOYSA-N

>  <name>  (517) 
C14594-P615

>  <HIPPO Pose ID>  (517) 
350374

>  <Energy>  (517) 
8.339579

>  <exports>  (517) 
['/opt/xchem-fragalysis-2/maxwin/BulkDock/OUTPUTS/openbind_a71ev2a_c1_knitwork_impure_165VXJF.sdf', '/opt/xchem-fragalysis-2/maxwin/BulkDock/OUTPUTS/openbind_a71ev2a_c1_knitwork_impure_1B07QS4.sdf', '/opt/xchem-fragalysis-2/maxwin/BulkDock/OUTPUTS/openbind_a71ev2a_c1_knitwork_impure_1B07X5R.sdf', '/opt/xchem-fragalysis-2/maxwin/openbind-hippo/a71ev2a/openbind_a71ev2a_c1_scaffold_products.sdf', '/opt/xchem-fragalysis-2/maxwin/openbind-hippo/a71ev2a/cycle_01/bulkdock/openbind_a71ev2a_c1_scaffold_products.sdf', '/opt/xchem-fragalysis-2/maxwin/openbind-hippo/a71ev2a/cycle_01/bulkdock/openbind_a71ev2a_c1_scaffolds.sdf']

>  <fragmenstein_runtime>  (517) 
15.233064

$$$$
C8152-P146
     RDKit          3D

 14 14  0  0  0  0  0  0  0  0999 V2000
    9.6275    8.8631   23.5467 C   0  0  0  0  0  0  0  0  0  0  0  0
    9.5672   10.3623   23.3943 C   0  0  0  0  0  0  0  0  0  0  0  0
    8.2261   10.7812   23.6795 O   0  0  0  0  0  0  0  0  0  0  0  0
    7.9811   11.6884   24.6570 C   0  0  0  0  0  0  0  0  0  0  0  0
    7.0784   11.4834   25.4634 O   0  0  0  0  0  0  0  0  0  0  0  0
    8.8544   12.9538   24.6489 C   0  0  2  0  0  0  0  0  0  0  0  0
    8.2969   13.9642   25.5051 O   0  0  0  0  0  0  0  0  0  0  0  0
    9.0033   13.5288   23.2219 C   0  0  0  0  0  0  0  0  0  0  0  0
    9.3491   14.9604   23.2295 N   0  0  0  0  0  0  0  0  0  0  0  0
   10.6769   15.2597   23.7935 C   0  0  0  0  0  0  0  0  0  0  0  0
   11.8505   14.9310   22.8727 C   0  0  0  0  0  0  0  0  0  0  0  0
   11.6964   15.6176   21.5231 C   0  0  0  0  0  0  0  0  0  0  0  0
   10.3461   15.2711   20.9188 C   0  0  0  0  0  0  0  0  0  0  0  0
    9.2024   15.5587   21.8906 C   0  0  0  0  0  0  0  0  0  0  0  0
  1  2  1  0
  2  3  1  0
  3  4  1  0
  4  5  2  0
  4  6  1  0
  6  7  1  1
  6  8  1  0
  8  9  1  0
  9 10  1  0
 10 11  1  0
 11 12  1  0
 12 13  1  0
 13 14  1  0
 14  9  1  0
M  END
>  <ref_pdb>  (518) 
A3186a

>  <subsites>  (518) 
1 - Active Site

>  <HIPPO Compound ID>  (518) 
1335

>  <energy_score>  (518) 
-16.467063

>  <fragmenstein_mode>  (518) 
expansion

>  <scratch_subdir>  (518) 
/opt/xchem-fragalysis-2/maxwin/BulkDock/SCRATCH/512194/C8152-P146

>  <smiles>  (518) 
CCOC(=O)[C@H](O)CN1CCCCC1

>  <alias>  (518) 
C8152-P146

>  <ref_mols>  (518) 
A3186a,A0719a

>  <inspiration_score>  (518) 
None

>  <tags>  (518) 
BulkDock Fragalysis export,fragmenstein_placed,openbind_a71ev2a_c1_knitwork_impure,openbind_a71ev2a_c1_scaffolds

>  <fragmenstein_outcome>  (518) 
acceptable

>  <fragmenstein_error>  (518) 


>  <distance_score>  (518) 
0.788015

>  <inchikey>  (518) 
ASXOQFKVRDSSQV-UHFFFAOYSA-N

>  <name>  (518) 
C8152-P146

>  <HIPPO Pose ID>  (518) 
350618

>  <Energy>  (518) 
63.579026

>  <exports>  (518) 
['/opt/xchem-fragalysis-2/maxwin/BulkDock/OUTPUTS/openbind_a71ev2a_c1_knitwork_impure_165VXJF.sdf', '/opt/xchem-fragalysis-2/maxwin/BulkDock/OUTPUTS/openbind_a71ev2a_c1_knitwork_impure_1B07QS4.sdf', '/opt/xchem-fragalysis-2/maxwin/BulkDock/OUTPUTS/openbind_a71ev2a_c1_knitwork_impure_1B07X5R.sdf', '/opt/xchem-fragalysis-2/maxwin/openbind-hippo/a71ev2a/openbind_a71ev2a_c1_scaffold_products.sdf', '/opt/xchem-fragalysis-2/maxwin/openbind-hippo/a71ev2a/cycle_01/bulkdock/openbind_a71ev2a_c1_scaffold_products.sdf', '/opt/xchem-fragalysis-2/maxwin/openbind-hippo/a71ev2a/cycle_01/bulkdock/openbind_a71ev2a_c1_scaffolds.sdf']

>  <fragmenstein_runtime>  (518) 
1.564817

$$$$
C8163-P146
     RDKit          3D

 15 15  0  0  0  0  0  0  0  0999 V2000
   11.2719   15.6983   20.2458 C   0  0  0  0  0  0  0  0  0  0  0  0
   11.5766   15.3425   21.3506 C   0  0  0  0  0  0  0  0  0  0  0  0
   11.8748   14.8182   22.6896 C   0  0  0  0  0  0  0  0  0  0  0  0
   10.7529   15.1190   23.6785 C   0  0  0  0  0  0  0  0  0  0  0  0
    9.4460   14.6939   23.1635 N   0  0  0  0  0  0  0  0  0  0  0  0
    8.8616   13.1665   23.4706 S   0  0  0  0  0  0  0  0  0  0  0  0
    7.8222   12.9346   22.4915 O   0  0  0  0  0  0  0  0  0  0  0  0
    9.9567   12.2468   23.6808 O   0  0  0  0  0  0  0  0  0  0  0  0
    8.0568   13.4331   25.0279 C   0  0  0  0  0  0  0  0  0  0  0  0
    6.9791   12.3920   25.3038 C   0  0  1  0  0  0  0  0  0  0  0  0
    7.5164   10.9601   25.2964 C   0  0  0  0  0  0  0  0  0  0  0  0
    6.3954   10.0050   25.6446 C   0  0  0  0  0  0  0  0  0  0  0  0
    5.6689   10.3720   26.9305 C   0  0  0  0  0  0  0  0  0  0  0  0
    5.2155   11.7592   26.9150 N   0  0  0  0  0  0  0  0  0  0  0  0
    6.2997   12.6979   26.6422 C   0  0  0  0  0  0  0  0  0  0  0  0
  1  2  3  0
  2  3  1  0
  3  4  1  0
  4  5  1  0
  5  6  1  0
  6  7  2  0
  6  8  2  0
  6  9  1  0
 10  9  1  1
 10 11  1  0
 11 12  1  0
 12 13  1  0
 13 14  1  0
 14 15  1  0
 15 10  1  0
M  END
>  <ref_pdb>  (519) 
A3186a

>  <subsites>  (519) 
1 - Active Site

>  <HIPPO Compound ID>  (519) 
4120

>  <energy_score>  (519) 
-61.403546

>  <fragmenstein_mode>  (519) 
expansion

>  <scratch_subdir>  (519) 
/opt/xchem-fragalysis-2/maxwin/BulkDock/SCRATCH/512194/C8163-P146

>  <smiles>  (519) 
C#CCCNS(=O)(=O)C[C@H]1CCCNC1

>  <alias>  (519) 
C8163-P146

>  <ref_mols>  (519) 
A3186a,A0719a

>  <inspiration_score>  (519) 
None

>  <tags>  (519) 
BulkDock Fragalysis export,fragmenstein_placed,openbind_a71ev2a_c1_knitwork_impure,openbind_a71ev2a_c1_scaffolds

>  <fragmenstein_outcome>  (519) 
acceptable

>  <fragmenstein_error>  (519) 


>  <distance_score>  (519) 
0.946113

>  <inchikey>  (519) 
SCEDCLAZUHAAQO-UHFFFAOYSA-N

>  <name>  (519) 
C8163-P146

>  <HIPPO Pose ID>  (519) 
350628

>  <Energy>  (519) 
-62.3406

>  <exports>  (519) 
['/opt/xchem-fragalysis-2/maxwin/BulkDock/OUTPUTS/openbind_a71ev2a_c1_knitwork_impure_165VXJF.sdf', '/opt/xchem-fragalysis-2/maxwin/BulkDock/OUTPUTS/openbind_a71ev2a_c1_knitwork_impure_1B07QS4.sdf', '/opt/xchem-fragalysis-2/maxwin/BulkDock/OUTPUTS/openbind_a71ev2a_c1_knitwork_impure_1B07X5R.sdf', '/opt/xchem-fragalysis-2/maxwin/openbind-hippo/a71ev2a/openbind_a71ev2a_c1_scaffold_products.sdf', '/opt/xchem-fragalysis-2/maxwin/openbind-hippo/a71ev2a/cycle_01/bulkdock/openbind_a71ev2a_c1_scaffold_products.sdf', '/opt/xchem-fragalysis-2/maxwin/openbind-hippo/a71ev2a/cycle_01/bulkdock/openbind_a71ev2a_c1_scaffolds.sdf']

>  <fragmenstein_runtime>  (519) 
1.951398

$$$$
C8176-P146
     RDKit          3D

 15 15  0  0  0  0  0  0  0  0999 V2000
    8.7991   14.7577   25.5373 C   0  0  0  0  0  0  0  0  0  0  0  0
    9.0507   13.5816   24.5819 C   0  0  2  0  0  0  0  0  0  0  0  0
   10.4632   13.3156   24.5834 O   0  0  0  0  0  0  0  0  0  0  0  0
    8.5767   13.9749   23.1605 C   0  0  0  0  0  0  0  0  0  0  0  0
    7.6313   13.4125   22.5952 O   0  0  0  0  0  0  0  0  0  0  0  0
    9.2897   15.1624   22.5423 C   0  0  0  0  0  0  0  0  0  0  0  0
   10.4394   15.4940   23.2047 F   0  0  0  0  0  0  0  0  0  0  0  0
    9.6322   14.9754   21.2466 F   0  0  0  0  0  0  0  0  0  0  0  0
    8.0130   16.6353   22.6684 Br  0  0  0  0  0  0  0  0  0  0  0  0
    8.3832   12.2888   25.1171 C   0  0  2  0  0  0  0  0  0  0  0  0
    8.4717   11.0932   24.1594 C   0  0  0  0  0  0  0  0  0  0  0  0
    7.8314    9.8565   24.7606 C   0  0  0  0  0  0  0  0  0  0  0  0
    6.4980   10.1427   25.4376 C   0  0  0  0  0  0  0  0  0  0  0  0
    6.5437   11.2569   26.3780 N   0  0  0  0  0  0  0  0  0  0  0  0
    6.9619   12.4714   25.6695 C   0  0  0  0  0  0  0  0  0  0  0  0
  2  1  1  1
  2  3  1  0
  2  4  1  0
  4  5  2  0
  4  6  1  0
  6  7  1  0
  6  8  1  0
  6  9  1  0
  2 10  1  0
 10 11  1  6
 11 12  1  0
 12 13  1  0
 13 14  1  0
 14 15  1  0
 15 10  1  0
M  END
>  <ref_pdb>  (520) 
A3186a

>  <subsites>  (520) 
1 - Active Site

>  <HIPPO Compound ID>  (520) 
733

>  <energy_score>  (520) 
-15.882331

>  <fragmenstein_mode>  (520) 
expansion

>  <scratch_subdir>  (520) 
/opt/xchem-fragalysis-2/maxwin/BulkDock/SCRATCH/512194/C8176-P146

>  <smiles>  (520) 
C[C@](O)(C(=O)C(F)(F)Br)[C@@H]1CCCNC1

>  <alias>  (520) 
C8176-P146

>  <ref_mols>  (520) 
A3186a,A0719a

>  <inspiration_score>  (520) 
None

>  <tags>  (520) 
BulkDock Fragalysis export,fragmenstein_placed,openbind_a71ev2a_c1_knitwork_impure,openbind_a71ev2a_c1_scaffolds

>  <fragmenstein_outcome>  (520) 
acceptable

>  <fragmenstein_error>  (520) 


>  <distance_score>  (520) 
0.999847

>  <inchikey>  (520) 
TVAYLIZZNFTQFK-UHFFFAOYSA-N

>  <name>  (520) 
C8176-P146

>  <HIPPO Pose ID>  (520) 
350638

>  <Energy>  (520) 
73.114397

>  <exports>  (520) 
['/opt/xchem-fragalysis-2/maxwin/BulkDock/OUTPUTS/openbind_a71ev2a_c1_knitwork_impure_165VXJF.sdf', '/opt/xchem-fragalysis-2/maxwin/BulkDock/OUTPUTS/openbind_a71ev2a_c1_knitwork_impure_1B07QS4.sdf', '/opt/xchem-fragalysis-2/maxwin/BulkDock/OUTPUTS/openbind_a71ev2a_c1_knitwork_impure_1B07X5R.sdf', '/opt/xchem-fragalysis-2/maxwin/openbind-hippo/a71ev2a/openbind_a71ev2a_c1_scaffold_products.sdf', '/opt/xchem-fragalysis-2/maxwin/openbind-hippo/a71ev2a/cycle_01/bulkdock/openbind_a71ev2a_c1_scaffold_products.sdf', '/opt/xchem-fragalysis-2/maxwin/openbind-hippo/a71ev2a/cycle_01/bulkdock/openbind_a71ev2a_c1_scaffolds.sdf']

>  <fragmenstein_runtime>  (520) 
1.185198

$$$$
C13035-P2
     RDKit          3D

 18 19  0  0  0  0  0  0  0  0999 V2000
    3.1972   12.5277   30.2585 C   0  0  0  0  0  0  0  0  0  0  0  0
    3.2340   11.0305   29.9514 C   0  0  2  0  0  0  0  0  0  0  0  0
    3.8674   10.6557   28.6054 C   0  0  0  0  0  0  0  0  0  0  0  0
    5.0932   11.4330   28.1372 C   0  0  0  0  0  0  0  0  0  0  0  0
    5.4343   12.4483   28.6008 O   0  0  0  0  0  0  0  0  0  0  0  0
    5.6506   10.6442   26.9188 N   0  0  0  0  0  0  0  0  0  0  0  0
    6.6186   10.9724   26.0242 C   0  0  0  0  0  0  0  0  0  0  0  0
    7.2635   10.0628   25.1383 C   0  0  0  0  0  0  0  0  0  0  0  0
    8.1567   10.8467   24.4667 C   0  0  0  0  0  0  0  0  0  0  0  0
    7.9021   12.1121   24.8585 N   0  0  0  0  0  0  0  0  0  0  0  0
    7.0710   12.2251   25.8793 N   0  0  0  0  0  0  0  0  0  0  0  0
    8.7224   13.1275   24.2394 C   0  0  0  0  0  0  0  0  0  0  0  0
    9.8048   12.2690   23.5606 C   0  0  0  0  0  0  0  0  0  0  0  0
    9.2786   10.8013   23.5241 C   0  0  0  0  0  0  0  0  0  0  0  0
    1.8020   10.5063   29.9576 C   0  0  0  0  0  0  0  0  0  0  0  0
    1.2351   10.6371   31.1729 F   0  0  0  0  0  0  0  0  0  0  0  0
    1.7618    9.1975   29.6211 F   0  0  0  0  0  0  0  0  0  0  0  0
    1.0437   11.1704   29.0583 F   0  0  0  0  0  0  0  0  0  0  0  0
  2  1  1  6
  2  3  1  0
  3  4  1  0
  4  5  2  0
  4  6  1  0
  6  7  1  0
  7  8  1  0
  8  9  2  0
  9 10  1  0
 10 11  1  0
 10 12  1  0
 12 13  1  0
 13 14  1  0
  2 15  1  0
 15 16  1  0
 15 17  1  0
 15 18  1  0
 11  7  2  0
 14  9  1  0
M  END
>  <ref_pdb>  (521) 
A4298a

>  <subsites>  (521) 
1 - Active Site

>  <HIPPO Compound ID>  (521) 
8861

>  <energy_score>  (521) 
-32.498086

>  <fragmenstein_mode>  (521) 
expansion

>  <scratch_subdir>  (521) 
/opt/xchem-fragalysis-2/maxwin/BulkDock/SCRATCH/512194/C13035-P2

>  <smiles>  (521) 
C[C@H](CC(=O)Nc1cc2n(n1)CCC2)C(F)(F)F

>  <alias>  (521) 
C13035-P2

>  <ref_mols>  (521) 
A1445a,A4298a

>  <inspiration_score>  (521) 
None

>  <tags>  (521) 
BulkDock Fragalysis export,fragmenstein_placed,openbind_a71ev2a_c1_knitwork_impure,openbind_a71ev2a_c1_scaffolds

>  <fragmenstein_outcome>  (521) 
acceptable

>  <fragmenstein_error>  (521) 


>  <distance_score>  (521) 
0.770837

>  <inchikey>  (521) 
MKTBAFXTCUWNBK-UHFFFAOYSA-N

>  <name>  (521) 
C13035-P2

>  <HIPPO Pose ID>  (521) 
350677

>  <Energy>  (521) 
-7.037895

>  <exports>  (521) 
['/opt/xchem-fragalysis-2/maxwin/BulkDock/OUTPUTS/openbind_a71ev2a_c1_knitwork_impure_165VXJF.sdf', '/opt/xchem-fragalysis-2/maxwin/BulkDock/OUTPUTS/openbind_a71ev2a_c1_knitwork_impure_1B07QS4.sdf', '/opt/xchem-fragalysis-2/maxwin/BulkDock/OUTPUTS/openbind_a71ev2a_c1_knitwork_impure_1B07X5R.sdf', '/opt/xchem-fragalysis-2/maxwin/openbind-hippo/a71ev2a/openbind_a71ev2a_c1_scaffold_products.sdf', '/opt/xchem-fragalysis-2/maxwin/openbind-hippo/a71ev2a/cycle_01/bulkdock/openbind_a71ev2a_c1_scaffold_products.sdf', '/opt/xchem-fragalysis-2/maxwin/openbind-hippo/a71ev2a/cycle_01/bulkdock/openbind_a71ev2a_c1_scaffolds.sdf']

>  <fragmenstein_runtime>  (521) 
3.474678

$$$$
C25758-P122
     RDKit          3D

 13 13  0  0  0  0  0  0  0  0999 V2000
    9.6301    9.1532   23.6383 C   0  0  0  0  0  0  0  0  0  0  0  0
    9.7042   10.5442   24.1269 C   0  0  0  0  0  0  0  0  0  0  0  0
   11.0866   11.0871   24.0047 C   0  0  0  0  0  0  0  0  0  0  0  0
    8.5962   11.1142   24.6212 C   0  0  0  0  0  0  0  0  0  0  0  0
    8.3788   12.5556   24.7644 C   0  0  0  0  0  0  0  0  0  0  0  0
    7.8983   12.9919   25.8073 O   0  0  0  0  0  0  0  0  0  0  0  0
    8.5758   13.4100   23.5333 C   0  0  0  0  0  0  0  0  0  0  0  0
    9.7868   14.3504   23.6584 C   0  0  0  0  0  0  0  0  0  0  0  0
   10.9684   13.8036   23.0425 N   0  0  0  0  0  0  0  0  0  0  0  0
   12.1542   14.6480   23.1170 C   0  0  0  0  0  0  0  0  0  0  0  0
   12.2983   15.2038   21.7237 C   0  0  0  0  0  0  0  0  0  0  0  0
   11.9003   14.0284   20.8718 C   0  0  0  0  0  0  0  0  0  0  0  0
   10.7458   13.4638   21.6461 C   0  0  0  0  0  0  0  0  0  0  0  0
  1  2  1  0
  2  3  1  0
  2  4  2  3
  4  5  1  0
  5  6  2  0
  5  7  1  0
  7  8  1  0
  8  9  1  0
  9 10  1  0
 10 11  1  0
 11 12  1  0
 12 13  1  0
 13  9  1  0
M  END
>  <ref_pdb>  (522) 
A1775a

>  <subsites>  (522) 
1 - Active Site

>  <HIPPO Compound ID>  (522) 
20719

>  <energy_score>  (522) 
-13.181489

>  <fragmenstein_mode>  (522) 
expansion

>  <scratch_subdir>  (522) 
/opt/xchem-fragalysis-2/maxwin/BulkDock/SCRATCH/512194/C25758-P122

>  <smiles>  (522) 
CC(C)=CC(=O)CCN1CCCC1

>  <alias>  (522) 
C25758-P122

>  <ref_mols>  (522) 
A1775a,A4421a

>  <inspiration_score>  (522) 
None

>  <tags>  (522) 
BulkDock Fragalysis export,fragmenstein_placed,openbind_a71ev2a_c1_knitwork_impure,openbind_a71ev2a_c1_scaffolds

>  <fragmenstein_outcome>  (522) 
acceptable

>  <fragmenstein_error>  (522) 


>  <distance_score>  (522) 
0.915406

>  <inchikey>  (522) 
XPVXHOUETPQGLE-UHFFFAOYSA-N

>  <name>  (522) 
C25758-P122

>  <HIPPO Pose ID>  (522) 
351045

>  <Energy>  (522) 
47.623933

>  <exports>  (522) 
['/opt/xchem-fragalysis-2/maxwin/BulkDock/OUTPUTS/openbind_a71ev2a_c1_knitwork_impure_165VXJF.sdf', '/opt/xchem-fragalysis-2/maxwin/BulkDock/OUTPUTS/openbind_a71ev2a_c1_knitwork_impure_1B07QS4.sdf', '/opt/xchem-fragalysis-2/maxwin/BulkDock/OUTPUTS/openbind_a71ev2a_c1_knitwork_impure_1B07X5R.sdf', '/opt/xchem-fragalysis-2/maxwin/openbind-hippo/a71ev2a/openbind_a71ev2a_c1_scaffold_products.sdf', '/opt/xchem-fragalysis-2/maxwin/openbind-hippo/a71ev2a/cycle_01/bulkdock/openbind_a71ev2a_c1_scaffold_products.sdf', '/opt/xchem-fragalysis-2/maxwin/openbind-hippo/a71ev2a/cycle_01/bulkdock/openbind_a71ev2a_c1_scaffolds.sdf']

>  <fragmenstein_runtime>  (522) 
1.924866

$$$$
C1780-P441
     RDKit          3D

 11 12  0  0  0  0  0  0  0  0999 V2000
    8.4362   10.5660   25.0769 C   0  0  0  0  0  0  0  0  0  0  0  0
    9.2015   11.0537   23.9875 C   0  0  0  0  0  0  0  0  0  0  0  0
    9.1347   12.4328   23.9328 C   0  0  0  0  0  0  0  0  0  0  0  0
    9.6580   13.3511   22.8704 C   0  0  2  0  0  0  0  0  0  0  0  0
   10.7366   14.3299   23.3416 C   0  0  0  0  0  0  0  0  0  0  0  0
   11.3138   15.1134   22.1561 C   0  0  0  0  0  0  0  0  0  0  0  0
   10.4080   15.0741   20.9293 C   0  0  0  0  0  0  0  0  0  0  0  0
    8.9386   15.1015   21.3166 C   0  0  0  0  0  0  0  0  0  0  0  0
    8.5287   14.0313   22.2268 N   0  0  0  0  0  0  0  0  0  0  0  0
    8.2037   12.9749   25.2642 S   0  0  0  0  0  0  0  0  0  0  0  0
    7.8363   11.4651   25.8503 N   0  0  0  0  0  0  0  0  0  0  0  0
  1  2  1  0
  2  3  2  0
  4  3  1  1
  4  5  1  0
  5  6  1  0
  6  7  1  0
  7  8  1  0
  8  9  1  0
  3 10  1  0
 10 11  1  0
 11  1  2  0
  9  4  1  0
M  END
>  <ref_pdb>  (523) 
A4708a

>  <subsites>  (523) 
1 - Active Site

>  <HIPPO Compound ID>  (523) 
92303

>  <energy_score>  (523) 
-30.156291

>  <fragmenstein_mode>  (523) 
expansion

>  <scratch_subdir>  (523) 
/opt/xchem-fragalysis-2/maxwin/BulkDock/SCRATCH/512194/C1780-P441

>  <smiles>  (523) 
c1cc([C@@H]2CCCCN2)sn1

>  <alias>  (523) 
C1780-P441

>  <ref_mols>  (523) 
A4708a,A3564a

>  <inspiration_score>  (523) 
None

>  <tags>  (523) 
BulkDock Fragalysis export,fragmenstein_placed,openbind_a71ev2a_c1_knitwork_impure,openbind_a71ev2a_c1_scaffolds

>  <fragmenstein_outcome>  (523) 
acceptable

>  <fragmenstein_error>  (523) 


>  <distance_score>  (523) 
0.968495

>  <inchikey>  (523) 
OKTSLPRUODZUGE-UHFFFAOYSA-N

>  <name>  (523) 
C1780-P441

>  <HIPPO Pose ID>  (523) 
351335

>  <Energy>  (523) 
2.431926

>  <exports>  (523) 
['/opt/xchem-fragalysis-2/maxwin/BulkDock/OUTPUTS/openbind_a71ev2a_c1_knitwork_impure_165VXJF.sdf', '/opt/xchem-fragalysis-2/maxwin/BulkDock/OUTPUTS/openbind_a71ev2a_c1_knitwork_impure_1B07QS4.sdf', '/opt/xchem-fragalysis-2/maxwin/BulkDock/OUTPUTS/openbind_a71ev2a_c1_knitwork_impure_1B07X5R.sdf', '/opt/xchem-fragalysis-2/maxwin/openbind-hippo/a71ev2a/openbind_a71ev2a_c1_scaffold_products.sdf', '/opt/xchem-fragalysis-2/maxwin/openbind-hippo/a71ev2a/cycle_01/bulkdock/openbind_a71ev2a_c1_scaffold_products.sdf', '/opt/xchem-fragalysis-2/maxwin/openbind-hippo/a71ev2a/cycle_01/bulkdock/openbind_a71ev2a_c1_scaffolds.sdf']

>  <fragmenstein_runtime>  (523) 
2.973701

$$$$
C26247-P205
     RDKit          3D

 14 14  0  0  0  0  0  0  0  0999 V2000
   12.1634   15.3067   21.4044 C   0  0  0  0  0  0  0  0  0  0  0  0
   11.6717   15.3021   22.4978 C   0  0  0  0  0  0  0  0  0  0  0  0
   10.9849   15.3765   23.7885 C   0  0  0  0  0  0  0  0  0  0  0  0
    9.4782   15.0065   23.7025 C   0  0  0  0  0  0  0  0  0  0  0  0
    8.8933   15.3250   22.3076 C   0  0  0  0  0  0  0  0  0  0  0  0
    8.7320   15.8199   24.7871 C   0  0  0  0  0  0  0  0  0  0  0  0
    9.3197   13.5144   24.0959 C   0  0  0  0  0  0  0  0  0  0  0  0
   10.2046   12.8783   24.5267 O   0  0  0  0  0  0  0  0  0  0  0  0
    7.8100   13.1482   23.8984 N   0  0  0  0  0  0  0  0  0  0  0  0
    7.1131   12.0256   24.2598 N   0  0  0  0  0  0  0  0  0  0  0  0
    7.9267   10.8282   24.4561 C   0  0  0  0  0  0  0  0  0  0  0  0
    6.9754    9.9186   25.1994 C   0  0  0  0  0  0  0  0  0  0  0  0
    6.1518   10.8488   26.0683 C   0  0  0  0  0  0  0  0  0  0  0  0
    6.4219   12.2424   25.5355 C   0  0  0  0  0  0  0  0  0  0  0  0
  1  2  3  0
  2  3  1  0
  3  4  1  0
  4  5  1  0
  4  6  1  0
  4  7  1  0
  7  8  2  0
  7  9  1  0
  9 10  1  0
 10 11  1  0
 11 12  1  0
 12 13  1  0
 13 14  1  0
 14 10  1  0
M  END
>  <ref_pdb>  (524) 
A3694a

>  <subsites>  (524) 
1 - Active Site

>  <HIPPO Compound ID>  (524) 
2911

>  <energy_score>  (524) 
-8.833016

>  <fragmenstein_mode>  (524) 
expansion

>  <scratch_subdir>  (524) 
/opt/xchem-fragalysis-2/maxwin/BulkDock/SCRATCH/512194/C26247-P205

>  <smiles>  (524) 
C#CCC(C)(C)C(=O)NN1CCCC1

>  <alias>  (524) 
C26247-P205

>  <ref_mols>  (524) 
A1445a,A3694a

>  <inspiration_score>  (524) 
None

>  <tags>  (524) 
BulkDock Fragalysis export,fragmenstein_placed,openbind_a71ev2a_c1_knitwork_impure,openbind_a71ev2a_c1_scaffolds

>  <fragmenstein_outcome>  (524) 
acceptable

>  <fragmenstein_error>  (524) 


>  <distance_score>  (524) 
0.939548

>  <inchikey>  (524) 
NCEQHOKEWKRXIV-UHFFFAOYSA-N

>  <name>  (524) 
C26247-P205

>  <HIPPO Pose ID>  (524) 
351473

>  <Energy>  (524) 
69.479621

>  <exports>  (524) 
['/opt/xchem-fragalysis-2/maxwin/BulkDock/OUTPUTS/openbind_a71ev2a_c1_knitwork_impure_165VXJF.sdf', '/opt/xchem-fragalysis-2/maxwin/BulkDock/OUTPUTS/openbind_a71ev2a_c1_knitwork_impure_1B07QS4.sdf', '/opt/xchem-fragalysis-2/maxwin/BulkDock/OUTPUTS/openbind_a71ev2a_c1_knitwork_impure_1B07X5R.sdf', '/opt/xchem-fragalysis-2/maxwin/openbind-hippo/a71ev2a/openbind_a71ev2a_c1_scaffold_products.sdf', '/opt/xchem-fragalysis-2/maxwin/openbind-hippo/a71ev2a/cycle_01/bulkdock/openbind_a71ev2a_c1_scaffold_products.sdf', '/opt/xchem-fragalysis-2/maxwin/openbind-hippo/a71ev2a/cycle_01/bulkdock/openbind_a71ev2a_c1_scaffolds.sdf']

>  <fragmenstein_runtime>  (524) 
14.633431

$$$$
C11212-P135
     RDKit          3D

 15 15  0  0  0  0  0  0  0  0999 V2000
   10.7955   14.9899   22.8181 O   0  0  0  0  0  0  0  0  0  0  0  0
   11.2158   13.9670   22.2775 C   0  0  0  0  0  0  0  0  0  0  0  0
   11.0118   12.6248   22.9738 C   0  0  0  0  0  0  0  0  0  0  0  0
    9.6305   12.5755   23.6144 C   0  0  0  0  0  0  0  0  0  0  0  0
    9.3567   11.3642   24.4922 C   0  0  0  0  0  0  0  0  0  0  0  0
    9.3219   10.0212   23.7945 C   0  0  0  0  0  0  0  0  0  0  0  0
   10.5615    9.5257   23.6141 F   0  0  0  0  0  0  0  0  0  0  0  0
    8.6498    9.1630   24.6017 F   0  0  0  0  0  0  0  0  0  0  0  0
   11.8831   13.9317   20.9185 C   0  0  0  0  0  0  0  0  0  0  0  0
   12.5559   15.1579   20.3652 C   0  0  0  0  0  0  0  0  0  0  0  0
   12.7535   15.2650   18.9832 C   0  0  0  0  0  0  0  0  0  0  0  0
   13.4204   16.3646   18.4530 C   0  0  0  0  0  0  0  0  0  0  0  0
   13.8818   17.3307   19.3278 C   0  0  0  0  0  0  0  0  0  0  0  0
   13.7224   17.2729   20.6646 N   0  0  0  0  0  0  0  0  0  0  0  0
   13.0685   16.1838   21.1453 C   0  0  0  0  0  0  0  0  0  0  0  0
  1  2  2  0
  2  3  1  0
  3  4  1  0
  4  5  1  0
  5  6  1  0
  6  7  1  0
  6  8  1  0
  2  9  1  0
  9 10  1  0
 10 11  2  0
 11 12  1  0
 12 13  2  0
 13 14  1  0
 14 15  2  0
 15 10  1  0
M  END
>  <ref_pdb>  (525) 
A2629a

>  <subsites>  (525) 
1 - Active Site

>  <HIPPO Compound ID>  (525) 
1786

>  <energy_score>  (525) 
-10.916855

>  <fragmenstein_mode>  (525) 
expansion

>  <scratch_subdir>  (525) 
/opt/xchem-fragalysis-2/maxwin/BulkDock/SCRATCH/512194/C11212-P135

>  <smiles>  (525) 
O=C(CCCC(F)F)Cc1cccnc1

>  <alias>  (525) 
C11212-P135

>  <ref_mols>  (525) 
A4526a,A2629a

>  <inspiration_score>  (525) 
None

>  <tags>  (525) 
BulkDock Fragalysis export,fragmenstein_placed,openbind_a71ev2a_c1_knitwork_impure,openbind_a71ev2a_c1_scaffolds

>  <fragmenstein_outcome>  (525) 
acceptable

>  <fragmenstein_error>  (525) 


>  <distance_score>  (525) 
0.843172

>  <inchikey>  (525) 
JXWMKEUIJSXMCW-UHFFFAOYSA-N

>  <name>  (525) 
C11212-P135

>  <HIPPO Pose ID>  (525) 
351712

>  <Energy>  (525) 
37.092977

>  <exports>  (525) 
['/opt/xchem-fragalysis-2/maxwin/BulkDock/OUTPUTS/openbind_a71ev2a_c1_knitwork_impure_165VXJF.sdf', '/opt/xchem-fragalysis-2/maxwin/BulkDock/OUTPUTS/openbind_a71ev2a_c1_knitwork_impure_1B07QS4.sdf', '/opt/xchem-fragalysis-2/maxwin/BulkDock/OUTPUTS/openbind_a71ev2a_c1_knitwork_impure_1B07X5R.sdf', '/opt/xchem-fragalysis-2/maxwin/openbind-hippo/a71ev2a/openbind_a71ev2a_c1_scaffold_products.sdf', '/opt/xchem-fragalysis-2/maxwin/openbind-hippo/a71ev2a/cycle_01/bulkdock/openbind_a71ev2a_c1_scaffold_products.sdf', '/opt/xchem-fragalysis-2/maxwin/openbind-hippo/a71ev2a/cycle_01/bulkdock/openbind_a71ev2a_c1_scaffolds.sdf']

>  <fragmenstein_runtime>  (525) 
4.122558

$$$$
C20066-P550
     RDKit          3D

 16 16  0  0  0  0  0  0  0  0999 V2000
   11.8365   15.5670   21.8193 C   0  0  0  0  0  0  0  0  0  0  0  0
   11.8271   14.9907   23.1302 O   0  0  0  0  0  0  0  0  0  0  0  0
   10.7186   14.8838   23.9002 C   0  0  0  0  0  0  0  0  0  0  0  0
   10.8593   14.6141   25.0925 O   0  0  0  0  0  0  0  0  0  0  0  0
    9.3258   15.1604   23.2515 C   0  0  1  0  0  0  0  0  0  0  0  0
    9.1348   14.6114   21.9495 O   0  0  0  0  0  0  0  0  0  0  0  0
    8.0603   14.7621   24.1223 C   0  0  0  0  0  0  0  0  0  0  0  0
    6.8509   15.5462   23.5334 C   0  0  0  0  0  0  0  0  0  0  0  0
    8.1824   15.2225   25.5963 C   0  0  0  0  0  0  0  0  0  0  0  0
    7.7169   13.2344   23.9877 C   0  0  2  0  0  0  0  0  0  0  0  0
    6.4958   12.8215   24.8404 C   0  0  0  0  0  0  0  0  0  0  0  0
    6.6408   11.4781   25.5228 C   0  0  0  0  0  0  0  0  0  0  0  0
    7.3579   10.5240   24.7333 N   0  0  0  0  0  0  0  0  0  0  0  0
    8.5123   10.8479   24.0792 C   0  0  0  0  0  0  0  0  0  0  0  0
    9.1761    9.9941   23.5073 O   0  0  0  0  0  0  0  0  0  0  0  0
    8.9148   12.2995   24.1769 C   0  0  0  0  0  0  0  0  0  0  0  0
  1  2  1  0
  2  3  1  0
  3  4  2  0
  3  5  1  0
  5  6  1  6
  5  7  1  0
  7  8  1  0
  7  9  1  0
 10  7  1  1
 10 11  1  0
 11 12  1  0
 12 13  1  0
 13 14  1  0
 14 15  2  0
 14 16  1  0
 16 10  1  0
M  END
>  <ref_pdb>  (526) 
A5036a

>  <subsites>  (526) 
1 - Active Site

>  <HIPPO Compound ID>  (526) 
11116

>  <energy_score>  (526) 
-40.505238

>  <fragmenstein_mode>  (526) 
expansion

>  <scratch_subdir>  (526) 
/opt/xchem-fragalysis-2/maxwin/BulkDock/SCRATCH/512194/C20066-P550

>  <smiles>  (526) 
COC(=O)[C@@H](O)C(C)(C)[C@@H]1CCNC(=O)C1

>  <alias>  (526) 
C20066-P550

>  <ref_mols>  (526) 
A0719a,A5036a

>  <inspiration_score>  (526) 
None

>  <tags>  (526) 
BulkDock Fragalysis export,fragmenstein_placed,openbind_a71ev2a_c1_knitwork_impure,openbind_a71ev2a_c1_scaffolds

>  <fragmenstein_outcome>  (526) 
acceptable

>  <fragmenstein_error>  (526) 


>  <distance_score>  (526) 
0.800094

>  <inchikey>  (526) 
WBRPYRDSULUSNM-UHFFFAOYSA-N

>  <name>  (526) 
C20066-P550

>  <HIPPO Pose ID>  (526) 
352007

>  <Energy>  (526) 
54.119024

>  <exports>  (526) 
['/opt/xchem-fragalysis-2/maxwin/BulkDock/OUTPUTS/openbind_a71ev2a_c1_knitwork_impure_165VXJF.sdf', '/opt/xchem-fragalysis-2/maxwin/BulkDock/OUTPUTS/openbind_a71ev2a_c1_knitwork_impure_1B07QS4.sdf', '/opt/xchem-fragalysis-2/maxwin/BulkDock/OUTPUTS/openbind_a71ev2a_c1_knitwork_impure_1B07X5R.sdf', '/opt/xchem-fragalysis-2/maxwin/openbind-hippo/a71ev2a/openbind_a71ev2a_c1_scaffold_products.sdf', '/opt/xchem-fragalysis-2/maxwin/openbind-hippo/a71ev2a/cycle_01/bulkdock/openbind_a71ev2a_c1_scaffold_products.sdf', '/opt/xchem-fragalysis-2/maxwin/openbind-hippo/a71ev2a/cycle_01/bulkdock/openbind_a71ev2a_c1_scaffolds.sdf']

>  <fragmenstein_runtime>  (526) 
1.883259

$$$$
C20082-P550
     RDKit          3D

 15 15  0  0  0  0  0  0  0  0999 V2000
    9.4755   12.1305   23.2307 O   0  0  0  0  0  0  0  0  0  0  0  0
    8.4387   12.1209   23.8874 C   0  0  0  0  0  0  0  0  0  0  0  0
    7.8575   10.9197   24.1591 N   0  0  0  0  0  0  0  0  0  0  0  0
    6.9991   10.7169   25.2857 C   0  0  0  0  0  0  0  0  0  0  0  0
    6.1023   11.8890   25.6201 C   0  0  0  0  0  0  0  0  0  0  0  0
    6.8120   13.2203   25.5185 C   0  0  0  0  0  0  0  0  0  0  0  0
    7.6370   13.3735   24.2368 C   0  0  1  0  0  0  0  0  0  0  0  0
    8.4540   14.6672   24.3596 C   0  0  0  0  0  0  0  0  0  0  0  0
    9.5895   14.7618   23.4300 N   0  0  0  0  0  0  0  0  0  0  0  0
   11.0920   14.8834   24.1676 S   0  0  0  0  0  0  0  0  0  0  0  0
   11.2855   13.6959   24.9660 O   0  0  0  0  0  0  0  0  0  0  0  0
   11.1884   16.1696   24.8182 O   0  0  0  0  0  0  0  0  0  0  0  0
   12.2076   14.8544   22.8054 C   0  0  0  0  0  0  0  0  0  0  0  0
   11.8990   15.8621   21.7310 C   0  0  0  0  0  0  0  0  0  0  0  0
   10.7769   15.2138   20.5107 Cl  0  0  0  0  0  0  0  0  0  0  0  0
  1  2  2  0
  2  3  1  0
  3  4  1  0
  4  5  1  0
  5  6  1  0
  6  7  1  0
  7  8  1  1
  8  9  1  0
  9 10  1  0
 10 11  2  0
 10 12  2  0
 10 13  1  0
 13 14  1  0
 14 15  1  0
  7  2  1  0
M  END
>  <ref_pdb>  (527) 
A5036a

>  <subsites>  (527) 
1 - Active Site

>  <HIPPO Compound ID>  (527) 
8041

>  <energy_score>  (527) 
-36.519402

>  <fragmenstein_mode>  (527) 
expansion

>  <scratch_subdir>  (527) 
/opt/xchem-fragalysis-2/maxwin/BulkDock/SCRATCH/512194/C20082-P550

>  <smiles>  (527) 
O=C1NCCC[C@H]1CNS(=O)(=O)CCCl

>  <alias>  (527) 
C20082-P550

>  <ref_mols>  (527) 
A0719a,A5036a

>  <inspiration_score>  (527) 
None

>  <tags>  (527) 
BulkDock Fragalysis export,fragmenstein_placed,openbind_a71ev2a_c1_knitwork_impure,openbind_a71ev2a_c1_scaffolds

>  <fragmenstein_outcome>  (527) 
acceptable

>  <fragmenstein_error>  (527) 


>  <distance_score>  (527) 
0.937587

>  <inchikey>  (527) 
NFLBITXMLRACJJ-UHFFFAOYSA-N

>  <name>  (527) 
C20082-P550

>  <HIPPO Pose ID>  (527) 
352023

>  <Energy>  (527) 
-94.632712

>  <exports>  (527) 
['/opt/xchem-fragalysis-2/maxwin/BulkDock/OUTPUTS/openbind_a71ev2a_c1_knitwork_impure_165VXJF.sdf', '/opt/xchem-fragalysis-2/maxwin/BulkDock/OUTPUTS/openbind_a71ev2a_c1_knitwork_impure_1B07QS4.sdf', '/opt/xchem-fragalysis-2/maxwin/BulkDock/OUTPUTS/openbind_a71ev2a_c1_knitwork_impure_1B07X5R.sdf', '/opt/xchem-fragalysis-2/maxwin/openbind-hippo/a71ev2a/openbind_a71ev2a_c1_scaffold_products.sdf', '/opt/xchem-fragalysis-2/maxwin/openbind-hippo/a71ev2a/cycle_01/bulkdock/openbind_a71ev2a_c1_scaffold_products.sdf', '/opt/xchem-fragalysis-2/maxwin/openbind-hippo/a71ev2a/cycle_01/bulkdock/openbind_a71ev2a_c1_scaffolds.sdf']

>  <fragmenstein_runtime>  (527) 
1.218898

$$$$
C1791-P197
     RDKit          3D

 15 17  0  0  0  0  0  0  0  0999 V2000
    7.6151   10.4392   25.4110 C   0  0  0  0  0  0  0  0  0  0  0  0
    8.4496    9.8645   24.2500 C   0  0  0  0  0  0  0  0  0  0  0  0
    9.4924   10.7929   23.6139 C   0  0  0  0  0  0  0  0  0  0  0  0
    9.0767   12.1909   23.7600 C   0  0  0  0  0  0  0  0  0  0  0  0
    9.7386   13.2081   23.1611 O   0  0  0  0  0  0  0  0  0  0  0  0
    9.0538   14.3275   23.5641 C   0  0  0  0  0  0  0  0  0  0  0  0
    9.5933   15.6625   23.1562 C   0  0  0  0  0  0  0  0  0  0  0  0
   11.0566   15.8372   23.5803 C   0  0  0  0  0  0  0  0  0  0  0  0
   12.0394   15.1960   22.6048 C   0  0  0  0  0  0  0  0  0  0  0  0
   11.8118   15.6427   21.2396 N   0  0  0  0  0  0  0  0  0  0  0  0
   10.4627   15.3133   20.7865 C   0  0  0  0  0  0  0  0  0  0  0  0
    9.3962   15.9570   21.6673 C   0  0  0  0  0  0  0  0  0  0  0  0
    8.0223   14.0707   24.3507 N   0  0  0  0  0  0  0  0  0  0  0  0
    8.0630   12.7153   24.5065 C   0  0  0  0  0  0  0  0  0  0  0  0
    7.1713   11.9136   25.3542 C   0  0  0  0  0  0  0  0  0  0  0  0
  1  2  1  0
  2  3  1  0
  3  4  1  0
  4  5  1  0
  5  6  1  0
  6  7  1  0
  7  8  1  0
  8  9  1  0
  9 10  1  0
 10 11  1  0
 11 12  1  0
  6 13  2  0
 13 14  1  0
 14 15  1  0
 15  1  1  0
 14  4  2  0
 12  7  1  0
M  END
>  <ref_pdb>  (528) 
A3616b

>  <subsites>  (528) 
1 - Active Site

>  <HIPPO Compound ID>  (528) 
12499

>  <energy_score>  (528) 
-43.495663

>  <fragmenstein_mode>  (528) 
expansion

>  <scratch_subdir>  (528) 
/opt/xchem-fragalysis-2/maxwin/BulkDock/SCRATCH/512194/C1791-P197

>  <smiles>  (528) 
C1CCc2oc(C3CCNCC3)nc2C1

>  <alias>  (528) 
C1791-P197

>  <ref_mols>  (528) 
A3623a,A3616b

>  <inspiration_score>  (528) 
None

>  <tags>  (528) 
BulkDock Fragalysis export,fragmenstein_placed,openbind_a71ev2a_c1_knitwork_impure,openbind_a71ev2a_c1_scaffolds

>  <fragmenstein_outcome>  (528) 
acceptable

>  <fragmenstein_error>  (528) 


>  <distance_score>  (528) 
0.928008

>  <inchikey>  (528) 
BCDQTWFBHRJQBJ-UHFFFAOYSA-N

>  <name>  (528) 
C1791-P197

>  <HIPPO Pose ID>  (528) 
352284

>  <Energy>  (528) 
6.064158

>  <exports>  (528) 
['/opt/xchem-fragalysis-2/maxwin/BulkDock/OUTPUTS/openbind_a71ev2a_c1_knitwork_impure_165VXJF.sdf', '/opt/xchem-fragalysis-2/maxwin/BulkDock/OUTPUTS/openbind_a71ev2a_c1_knitwork_impure_1B07QS4.sdf', '/opt/xchem-fragalysis-2/maxwin/BulkDock/OUTPUTS/openbind_a71ev2a_c1_knitwork_impure_1B07X5R.sdf', '/opt/xchem-fragalysis-2/maxwin/openbind-hippo/a71ev2a/openbind_a71ev2a_c1_scaffold_products.sdf', '/opt/xchem-fragalysis-2/maxwin/openbind-hippo/a71ev2a/cycle_01/bulkdock/openbind_a71ev2a_c1_scaffold_products.sdf', '/opt/xchem-fragalysis-2/maxwin/openbind-hippo/a71ev2a/cycle_01/bulkdock/openbind_a71ev2a_c1_scaffolds.sdf']

>  <fragmenstein_runtime>  (528) 
30.99528

$$$$
C1795-P197
     RDKit          3D

 15 17  0  0  0  0  0  0  0  0999 V2000
   11.7343   15.6580   21.0193 C   0  0  0  0  0  0  0  0  0  0  0  0
   12.0896   15.1462   22.4089 C   0  0  0  0  0  0  0  0  0  0  0  0
   11.1572   15.7251   23.4670 C   0  0  0  0  0  0  0  0  0  0  0  0
    9.7423   15.5203   23.1477 N   0  0  0  0  0  0  0  0  0  0  0  0
    9.2169   14.3174   23.5058 C   0  0  0  0  0  0  0  0  0  0  0  0
    9.7930   13.1519   23.3078 N   0  0  0  0  0  0  0  0  0  0  0  0
    9.0442   12.1332   23.8430 C   0  0  0  0  0  0  0  0  0  0  0  0
    7.9640   12.5501   24.5770 C   0  0  0  0  0  0  0  0  0  0  0  0
    7.7200   14.2211   24.3612 S   0  0  0  0  0  0  0  0  0  0  0  0
    7.0971   11.6946   25.4117 C   0  0  0  0  0  0  0  0  0  0  0  0
    7.5571   10.2325   25.4067 C   0  0  0  0  0  0  0  0  0  0  0  0
    8.4206    9.7343   24.2442 C   0  0  0  0  0  0  0  0  0  0  0  0
    9.4382   10.7153   23.6683 C   0  0  0  0  0  0  0  0  0  0  0  0
    9.3637   16.0166   21.8120 C   0  0  0  0  0  0  0  0  0  0  0  0
   10.2561   15.4257   20.7190 C   0  0  0  0  0  0  0  0  0  0  0  0
  1  2  1  0
  2  3  1  0
  3  4  1  0
  4  5  1  0
  5  6  2  0
  6  7  1  0
  7  8  2  0
  8  9  1  0
  8 10  1  0
 10 11  1  0
 11 12  1  0
 12 13  1  0
  4 14  1  0
 14 15  1  0
 15  1  1  0
  9  5  1  0
 13  7  1  0
M  END
>  <ref_pdb>  (529) 
A3616b

>  <subsites>  (529) 
1 - Active Site

>  <HIPPO Compound ID>  (529) 
8808

>  <energy_score>  (529) 
-61.186649

>  <fragmenstein_mode>  (529) 
expansion

>  <scratch_subdir>  (529) 
/opt/xchem-fragalysis-2/maxwin/BulkDock/SCRATCH/512194/C1795-P197

>  <smiles>  (529) 
C1CCN(c2nc3c(s2)CCCC3)CC1

>  <alias>  (529) 
C1795-P197

>  <ref_mols>  (529) 
A3623a,A3616b

>  <inspiration_score>  (529) 
None

>  <tags>  (529) 
BulkDock Fragalysis export,fragmenstein_placed,openbind_a71ev2a_c1_knitwork_impure,openbind_a71ev2a_c1_scaffolds

>  <fragmenstein_outcome>  (529) 
acceptable

>  <fragmenstein_error>  (529) 


>  <distance_score>  (529) 
0.97449

>  <inchikey>  (529) 
SKSIURWSBHFBHM-UHFFFAOYSA-N

>  <name>  (529) 
C1795-P197

>  <HIPPO Pose ID>  (529) 
352285

>  <Energy>  (529) 
-5.714418

>  <exports>  (529) 
['/opt/xchem-fragalysis-2/maxwin/BulkDock/OUTPUTS/openbind_a71ev2a_c1_knitwork_impure_165VXJF.sdf', '/opt/xchem-fragalysis-2/maxwin/BulkDock/OUTPUTS/openbind_a71ev2a_c1_knitwork_impure_1B07QS4.sdf', '/opt/xchem-fragalysis-2/maxwin/BulkDock/OUTPUTS/openbind_a71ev2a_c1_knitwork_impure_1B07X5R.sdf', '/opt/xchem-fragalysis-2/maxwin/openbind-hippo/a71ev2a/openbind_a71ev2a_c1_scaffold_products.sdf', '/opt/xchem-fragalysis-2/maxwin/openbind-hippo/a71ev2a/cycle_01/bulkdock/openbind_a71ev2a_c1_scaffold_products.sdf', '/opt/xchem-fragalysis-2/maxwin/openbind-hippo/a71ev2a/cycle_01/bulkdock/openbind_a71ev2a_c1_scaffolds.sdf']

>  <fragmenstein_runtime>  (529) 
18.034399

$$$$
C7479-P296
     RDKit          3D

 23 24  0  0  0  0  0  0  0  0999 V2000
    3.3866   12.2826   18.1972 C   0  0  0  0  0  0  0  0  0  0  0  0
    3.2221   12.6014   19.6829 C   0  0  0  0  0  0  0  0  0  0  0  0
    2.1444   11.7125   20.3026 C   0  0  0  0  0  0  0  0  0  0  0  0
    2.9108   14.0332   19.9060 C   0  0  0  0  0  0  0  0  0  0  0  0
    2.0405   14.6090   19.0249 O   0  0  0  0  0  0  0  0  0  0  0  0
    1.9603   15.8962   19.4295 C   0  0  0  0  0  0  0  0  0  0  0  0
    2.6752   16.1990   20.4921 N   0  0  0  0  0  0  0  0  0  0  0  0
    3.2689   14.9927   20.8370 C   0  0  0  0  0  0  0  0  0  0  0  0
    4.1379   14.8701   22.0482 C   0  0  0  0  0  0  0  0  0  0  0  0
    5.4135   15.4938   21.7367 N   0  0  0  0  0  0  0  0  0  0  0  0
    6.8085   14.7397   22.2320 S   0  0  0  0  0  0  0  0  0  0  0  0
    6.5777   13.3448   21.8740 O   0  0  0  0  0  0  0  0  0  0  0  0
    7.8087   15.4045   21.4220 O   0  0  0  0  0  0  0  0  0  0  0  0
    6.7169   15.0664   23.7295 N   0  0  0  0  0  0  0  0  0  0  0  0
    8.0642   14.9104   24.4494 S   0  0  2  0  0  0  0  0  0  0  0  0
    7.8268   15.5307   26.1005 C   0  0  0  0  0  0  0  0  0  0  0  0
    9.3005   15.5115   23.9961 O   0  0  0  0  0  0  0  0  0  0  0  0
    8.4342   13.1874   24.7766 C   0  0  0  0  0  0  0  0  0  0  0  0
    9.1555   12.5598   23.5946 C   0  0  0  0  0  0  0  0  0  0  0  0
    9.5316   11.1243   23.8496 C   0  0  0  0  0  0  0  0  0  0  0  0
    8.4913   10.2598   24.5266 C   0  0  0  0  0  0  0  0  0  0  0  0
    7.6329   10.9514   25.5708 C   0  0  0  0  0  0  0  0  0  0  0  0
    7.2160   12.3609   25.1784 C   0  0  0  0  0  0  0  0  0  0  0  0
  1  2  1  0
  2  3  1  0
  2  4  1  0
  4  5  1  0
  5  6  1  0
  6  7  2  0
  7  8  1  0
  8  9  1  0
  9 10  1  0
 10 11  1  0
 11 12  2  0
 11 13  2  0
 11 14  1  0
 14 15  2  0
 15 16  1  1
 15 17  2  0
 15 18  1  0
 18 19  1  0
 19 20  1  0
 20 21  1  0
 21 22  1  0
 22 23  1  0
  8  4  2  0
 23 18  1  0
M  END
>  <ref_pdb>  (530) 
A4311a

>  <subsites>  (530) 
1 - Active Site

>  <HIPPO Compound ID>  (530) 
13230

>  <energy_score>  (530) 
-240.208354

>  <fragmenstein_mode>  (530) 
expansion

>  <scratch_subdir>  (530) 
/opt/xchem-fragalysis-2/maxwin/BulkDock/SCRATCH/512194/C7479-P296

>  <smiles>  (530) 
CC(C)c1ocnc1CNS(=O)(=O)N=[S@](C)(=O)C1CCCCC1

>  <alias>  (530) 
C7479-P296

>  <ref_mols>  (530) 
A3623a,A4311a

>  <inspiration_score>  (530) 
None

>  <tags>  (530) 
BulkDock Fragalysis export,fragmenstein_placed,openbind_a71ev2a_c1_knitwork_impure,openbind_a71ev2a_c1_scaffolds

>  <fragmenstein_outcome>  (530) 
acceptable

>  <fragmenstein_error>  (530) 


>  <distance_score>  (530) 
0.891588

>  <inchikey>  (530) 
MHHNFZZOJRSSDX-UHFFFAOYSA-N

>  <name>  (530) 
C7479-P296

>  <HIPPO Pose ID>  (530) 
352385

>  <Energy>  (530) 
-243.762621

>  <exports>  (530) 
['/opt/xchem-fragalysis-2/maxwin/BulkDock/OUTPUTS/openbind_a71ev2a_c1_knitwork_impure_165VXJF.sdf', '/opt/xchem-fragalysis-2/maxwin/BulkDock/OUTPUTS/openbind_a71ev2a_c1_knitwork_impure_1B07QS4.sdf', '/opt/xchem-fragalysis-2/maxwin/BulkDock/OUTPUTS/openbind_a71ev2a_c1_knitwork_impure_1B07X5R.sdf', '/opt/xchem-fragalysis-2/maxwin/openbind-hippo/a71ev2a/openbind_a71ev2a_c1_scaffold_products.sdf', '/opt/xchem-fragalysis-2/maxwin/openbind-hippo/a71ev2a/cycle_01/bulkdock/openbind_a71ev2a_c1_scaffold_products.sdf', '/opt/xchem-fragalysis-2/maxwin/openbind-hippo/a71ev2a/cycle_01/bulkdock/openbind_a71ev2a_c1_scaffolds.sdf']

>  <fragmenstein_runtime>  (530) 
3.780581

$$$$
C6285-P557
     RDKit          3D

 12 13  0  0  0  0  0  0  0  0999 V2000
    9.3101   10.7696   23.5908 C   0  0  0  0  0  0  0  0  0  0  0  0
    8.4681   10.5887   24.6705 C   0  0  0  0  0  0  0  0  0  0  0  0
    7.9989   11.6029   25.4215 N   0  0  0  0  0  0  0  0  0  0  0  0
    8.3569   12.8556   25.0278 C   0  0  0  0  0  0  0  0  0  0  0  0
    9.1829   13.1641   23.9418 C   0  0  0  0  0  0  0  0  0  0  0  0
    9.4961   14.4882   23.6430 N   0  0  0  0  0  0  0  0  0  0  0  0
   10.7260   14.9716   24.3002 C   0  0  0  0  0  0  0  0  0  0  0  0
   11.9670   14.7774   23.4078 C   0  0  0  0  0  0  0  0  0  0  0  0
   11.8375   15.4830   22.1299 N   0  0  0  0  0  0  0  0  0  0  0  0
   10.6558   14.9692   21.4158 C   0  0  0  0  0  0  0  0  0  0  0  0
    9.3466   14.9797   22.2457 C   0  0  0  0  0  0  0  0  0  0  0  0
    9.6729   12.0710   23.2372 C   0  0  0  0  0  0  0  0  0  0  0  0
  1  2  2  0
  2  3  1  0
  3  4  2  0
  4  5  1  0
  5  6  1  0
  6  7  1  0
  7  8  1  0
  8  9  1  0
  9 10  1  0
 10 11  1  0
  5 12  2  0
 12  1  1  0
 11  6  1  0
M  END
>  <ref_pdb>  (531) 
A5079a

>  <subsites>  (531) 
1 - Active Site

>  <HIPPO Compound ID>  (531) 
14131

>  <energy_score>  (531) 
-19.88246

>  <fragmenstein_mode>  (531) 
expansion

>  <scratch_subdir>  (531) 
/opt/xchem-fragalysis-2/maxwin/BulkDock/SCRATCH/512194/C6285-P557

>  <smiles>  (531) 
c1cncc(N2CCNCC2)c1

>  <alias>  (531) 
C6285-P557

>  <ref_mols>  (531) 
A5079a,A2629a

>  <inspiration_score>  (531) 
None

>  <tags>  (531) 
BulkDock Fragalysis export,fragmenstein_placed,openbind_a71ev2a_c1_knitwork_impure,openbind_a71ev2a_c1_scaffolds

>  <fragmenstein_outcome>  (531) 
acceptable

>  <fragmenstein_error>  (531) 


>  <distance_score>  (531) 
0.881465

>  <inchikey>  (531) 
UGKZNMVPXYTRAP-UHFFFAOYSA-N

>  <name>  (531) 
C6285-P557

>  <HIPPO Pose ID>  (531) 
353372

>  <Energy>  (531) 
117.850211

>  <exports>  (531) 
['/opt/xchem-fragalysis-2/maxwin/BulkDock/OUTPUTS/openbind_a71ev2a_c1_knitwork_impure_165VXJF.sdf', '/opt/xchem-fragalysis-2/maxwin/BulkDock/OUTPUTS/openbind_a71ev2a_c1_knitwork_impure_1B07QS4.sdf', '/opt/xchem-fragalysis-2/maxwin/BulkDock/OUTPUTS/openbind_a71ev2a_c1_knitwork_impure_1B07X5R.sdf', '/opt/xchem-fragalysis-2/maxwin/openbind-hippo/a71ev2a/openbind_a71ev2a_c1_scaffold_products.sdf', '/opt/xchem-fragalysis-2/maxwin/openbind-hippo/a71ev2a/cycle_01/bulkdock/openbind_a71ev2a_c1_scaffold_products.sdf', '/opt/xchem-fragalysis-2/maxwin/openbind-hippo/a71ev2a/cycle_01/bulkdock/openbind_a71ev2a_c1_scaffolds.sdf']

>  <fragmenstein_runtime>  (531) 
12.362244

$$$$
C709-P557
     RDKit          3D

 12 13  0  0  0  0  0  0  0  0999 V2000
    9.3080   10.7704   23.5996 C   0  0  0  0  0  0  0  0  0  0  0  0
    8.4556   10.5734   24.6683 C   0  0  0  0  0  0  0  0  0  0  0  0
    7.9631   11.5781   25.4175 N   0  0  0  0  0  0  0  0  0  0  0  0
    8.3092   12.8370   25.0352 C   0  0  0  0  0  0  0  0  0  0  0  0
    9.1468   13.1604   23.9630 C   0  0  0  0  0  0  0  0  0  0  0  0
    9.4516   14.4859   23.6735 N   0  0  0  0  0  0  0  0  0  0  0  0
   10.6931   14.9868   24.2839 C   0  0  0  0  0  0  0  0  0  0  0  0
   11.9254   14.7638   23.4088 C   0  0  0  0  0  0  0  0  0  0  0  0
   11.7998   15.6796   21.8491 S   0  0  0  0  0  0  0  0  0  0  0  0
   10.2209   14.9742   21.2881 C   0  0  0  0  0  0  0  0  0  0  0  0
    9.1094   15.0404   22.3422 C   0  0  0  0  0  0  0  0  0  0  0  0
    9.6596   12.0778   23.2577 C   0  0  0  0  0  0  0  0  0  0  0  0
  1  2  2  0
  2  3  1  0
  3  4  2  0
  4  5  1  0
  5  6  1  0
  6  7  1  0
  7  8  1  0
  8  9  1  0
  9 10  1  0
 10 11  1  0
  5 12  2  0
 12  1  1  0
 11  6  1  0
M  END
>  <ref_pdb>  (532) 
A5079a

>  <subsites>  (532) 
1 - Active Site

>  <HIPPO Compound ID>  (532) 
137590

>  <energy_score>  (532) 
-13.512434

>  <fragmenstein_mode>  (532) 
expansion

>  <scratch_subdir>  (532) 
/opt/xchem-fragalysis-2/maxwin/BulkDock/SCRATCH/512194/C709-P557

>  <smiles>  (532) 
c1cncc(N2CCSCC2)c1

>  <alias>  (532) 
C709-P557

>  <ref_mols>  (532) 
A5079a,A2629a

>  <inspiration_score>  (532) 
None

>  <tags>  (532) 
BulkDock Fragalysis export,fragmenstein_placed,openbind_a71ev2a_c1_knitwork_impure,openbind_a71ev2a_c1_scaffolds

>  <fragmenstein_outcome>  (532) 
acceptable

>  <fragmenstein_error>  (532) 


>  <distance_score>  (532) 
0.967459

>  <inchikey>  (532) 
OCOAFNKPMGWDGK-UHFFFAOYSA-N

>  <name>  (532) 
C709-P557

>  <HIPPO Pose ID>  (532) 
353377

>  <Energy>  (532) 
92.195122

>  <exports>  (532) 
['/opt/xchem-fragalysis-2/maxwin/BulkDock/OUTPUTS/openbind_a71ev2a_c1_knitwork_impure_165VXJF.sdf', '/opt/xchem-fragalysis-2/maxwin/BulkDock/OUTPUTS/openbind_a71ev2a_c1_knitwork_impure_1B07QS4.sdf', '/opt/xchem-fragalysis-2/maxwin/BulkDock/OUTPUTS/openbind_a71ev2a_c1_knitwork_impure_1B07X5R.sdf', '/opt/xchem-fragalysis-2/maxwin/openbind-hippo/a71ev2a/openbind_a71ev2a_c1_scaffold_products.sdf', '/opt/xchem-fragalysis-2/maxwin/openbind-hippo/a71ev2a/cycle_01/bulkdock/openbind_a71ev2a_c1_scaffold_products.sdf', '/opt/xchem-fragalysis-2/maxwin/openbind-hippo/a71ev2a/cycle_01/bulkdock/openbind_a71ev2a_c1_scaffolds.sdf']

>  <fragmenstein_runtime>  (532) 
6.787001

$$$$
C90474-P543
     RDKit          3D

 10 10  0  0  0  0  0  0  0  0999 V2000
    8.7962   11.3324   23.6355 C   0  0  0  0  0  0  0  0  0  0  0  0
    8.3867   12.2839   24.7354 C   0  0  0  0  0  0  0  0  0  0  0  0
    6.8930   12.3126   25.0035 C   0  0  0  0  0  0  0  0  0  0  0  0
    8.9455   11.7668   25.8559 F   0  0  0  0  0  0  0  0  0  0  0  0
    8.9018   13.7221   24.4888 C   0  0  0  0  0  0  0  0  0  0  0  0
   10.2676   13.7297   23.9310 N   0  0  0  0  0  0  0  0  0  0  0  0
   10.4463   14.8930   23.0979 N   0  0  0  0  0  0  0  0  0  0  0  0
    9.8973   14.6560   21.7215 C   0  0  0  0  0  0  0  0  0  0  0  0
   11.2607   14.0964   21.3077 C   0  0  0  0  0  0  0  0  0  0  0  0
   11.8037   14.8918   22.4828 C   0  0  0  0  0  0  0  0  0  0  0  0
  1  2  1  0
  2  3  1  0
  2  4  1  0
  2  5  1  0
  5  6  1  0
  6  7  1  0
  7  8  1  0
  8  9  1  0
  9 10  1  0
 10  7  1  0
M  END
>  <ref_pdb>  (533) 
A4994a

>  <subsites>  (533) 
1 - Active Site

>  <HIPPO Compound ID>  (533) 
717

>  <energy_score>  (533) 
-20.309401

>  <fragmenstein_mode>  (533) 
expansion

>  <scratch_subdir>  (533) 
/opt/xchem-fragalysis-2/maxwin/BulkDock/SCRATCH/511177/C90474-P543

>  <smiles>  (533) 
CC(C)(F)CNN1CCC1

>  <alias>  (533) 
C90474-P543

>  <ref_mols>  (533) 
A1445a,A4994a

>  <inspiration_score>  (533) 
None

>  <tags>  (533) 
BulkDock Fragalysis export,fragmenstein_placed,openbind_a71ev2a_c1_knitwork_impure,openbind_a71ev2a_c1_scaffolds

>  <fragmenstein_outcome>  (533) 
acceptable

>  <fragmenstein_error>  (533) 


>  <distance_score>  (533) 
0.905839

>  <inchikey>  (533) 
NALJDFTWWSKAFR-UHFFFAOYSA-N

>  <name>  (533) 
C90474-P543

>  <HIPPO Pose ID>  (533) 
354267

>  <Energy>  (533) 
69.826574

>  <exports>  (533) 
['/opt/xchem-fragalysis-2/maxwin/BulkDock/OUTPUTS/openbind_a71ev2a_c1_knitwork_impure_165VXJF.sdf', '/opt/xchem-fragalysis-2/maxwin/BulkDock/OUTPUTS/openbind_a71ev2a_c1_knitwork_impure_1B07QS4.sdf', '/opt/xchem-fragalysis-2/maxwin/BulkDock/OUTPUTS/openbind_a71ev2a_c1_knitwork_impure_1B07X5R.sdf', '/opt/xchem-fragalysis-2/maxwin/openbind-hippo/a71ev2a/openbind_a71ev2a_c1_scaffold_products.sdf', '/opt/xchem-fragalysis-2/maxwin/openbind-hippo/a71ev2a/cycle_01/bulkdock/openbind_a71ev2a_c1_scaffold_products.sdf', '/opt/xchem-fragalysis-2/maxwin/openbind-hippo/a71ev2a/cycle_01/bulkdock/openbind_a71ev2a_c1_scaffolds.sdf']

>  <fragmenstein_runtime>  (533) 
1.358015

$$$$
C4728-P344
     RDKit          3D

  9  9  0  0  0  0  0  0  0  0999 V2000
   10.8810   15.8779   21.0872 O   0  0  0  0  0  0  0  0  0  0  0  0
   11.8089   15.5152   21.8033 C   0  0  0  0  0  0  0  0  0  0  0  0
   11.6390   14.7078   23.0680 C   0  0  0  0  0  0  0  0  0  0  0  0
   10.1899   14.7250   23.5686 C   0  0  0  0  0  0  0  0  0  0  0  0
    9.9025   13.6451   24.5344 N   0  0  0  0  0  0  0  0  0  0  0  0
    8.5559   13.7931   25.1355 C   0  0  0  0  0  0  0  0  0  0  0  0
    8.0319   12.4002   25.2466 C   0  0  0  0  0  0  0  0  0  0  0  0
    8.7941   11.5637   24.5394 C   0  0  0  0  0  0  0  0  0  0  0  0
    9.8918   12.3174   23.8734 C   0  0  0  0  0  0  0  0  0  0  0  0
  1  2  2  0
  2  3  1  0
  3  4  1  0
  4  5  1  0
  5  6  1  0
  6  7  1  0
  7  8  2  0
  8  9  1  0
  9  5  1  0
M  END
>  <ref_pdb>  (534) 
A4274b

>  <subsites>  (534) 
1 - Active Site

>  <HIPPO Compound ID>  (534) 
2655

>  <energy_score>  (534) 
-31.453841

>  <fragmenstein_mode>  (534) 
expansion

>  <scratch_subdir>  (534) 
/opt/xchem-fragalysis-2/maxwin/BulkDock/SCRATCH/511177/C4728-P344

>  <smiles>  (534) 
O=CCCN1CC=CC1

>  <alias>  (534) 
C4728-P344

>  <ref_mols>  (534) 
A4274b,A1779a

>  <inspiration_score>  (534) 
None

>  <tags>  (534) 
BulkDock Fragalysis export,fragmenstein_placed,openbind_a71ev2a_c1_knitwork_impure,openbind_a71ev2a_c1_scaffolds

>  <fragmenstein_outcome>  (534) 
acceptable

>  <fragmenstein_error>  (534) 


>  <distance_score>  (534) 
0.896831

>  <inchikey>  (534) 
KPRRPMPYWRBBFE-UHFFFAOYSA-N

>  <name>  (534) 
C4728-P344

>  <HIPPO Pose ID>  (534) 
354497

>  <Energy>  (534) 
-0.941983

>  <exports>  (534) 
['/opt/xchem-fragalysis-2/maxwin/BulkDock/OUTPUTS/openbind_a71ev2a_c1_knitwork_impure_165VXJF.sdf', '/opt/xchem-fragalysis-2/maxwin/BulkDock/OUTPUTS/openbind_a71ev2a_c1_knitwork_impure_1B07QS4.sdf', '/opt/xchem-fragalysis-2/maxwin/BulkDock/OUTPUTS/openbind_a71ev2a_c1_knitwork_impure_1B07X5R.sdf', '/opt/xchem-fragalysis-2/maxwin/openbind-hippo/a71ev2a/openbind_a71ev2a_c1_scaffold_products.sdf', '/opt/xchem-fragalysis-2/maxwin/openbind-hippo/a71ev2a/cycle_01/bulkdock/openbind_a71ev2a_c1_scaffold_products.sdf', '/opt/xchem-fragalysis-2/maxwin/openbind-hippo/a71ev2a/cycle_01/bulkdock/openbind_a71ev2a_c1_scaffolds.sdf']

>  <fragmenstein_runtime>  (534) 
6.454803

$$$$
C4745-P440
     RDKit          3D

 11 12  0  0  0  0  0  0  0  0999 V2000
   11.2862   14.8678   22.4009 C   0  0  0  0  0  0  0  0  0  0  0  0
   10.9101   14.0158   23.4123 C   0  0  0  0  0  0  0  0  0  0  0  0
    9.5591   13.6771   23.1322 C   0  0  0  0  0  0  0  0  0  0  0  0
    8.6392   12.6927   23.8116 C   0  0  2  0  0  0  0  0  0  0  0  0
    8.0636   13.2184   25.1438 C   0  0  0  0  0  0  0  0  0  0  0  0
    7.0144   12.3686   25.7569 N   0  0  0  0  0  0  0  0  0  0  0  0
    7.5120   11.0199   26.0578 C   0  0  0  0  0  0  0  0  0  0  0  0
    8.0410   10.2282   24.8620 C   0  0  0  0  0  0  0  0  0  0  0  0
    9.4485   11.0634   24.0779 S   0  0  0  0  0  0  0  0  0  0  0  0
    9.1066   14.3615   22.0688 N   0  0  0  0  0  0  0  0  0  0  0  0
   10.1943   14.9952   21.5941 N   0  0  0  0  0  0  0  0  0  0  0  0
  1  2  2  0
  2  3  1  0
  4  3  1  1
  4  5  1  0
  5  6  1  0
  6  7  1  0
  7  8  1  0
  8  9  1  0
  3 10  2  0
 10 11  1  0
 11  1  1  0
  9  4  1  0
M  END
>  <ref_pdb>  (535) 
A4707a

>  <subsites>  (535) 
1 - Active Site

>  <HIPPO Compound ID>  (535) 
24158

>  <energy_score>  (535) 
-27.676617

>  <fragmenstein_mode>  (535) 
expansion

>  <scratch_subdir>  (535) 
/opt/xchem-fragalysis-2/maxwin/BulkDock/SCRATCH/511177/C4745-P440

>  <smiles>  (535) 
c1cc([C@@H]2CNCCS2)n[nH]1

>  <alias>  (535) 
C4745-P440

>  <ref_mols>  (535) 
A2304a,A4707a

>  <inspiration_score>  (535) 
None

>  <tags>  (535) 
BulkDock Fragalysis export,fragmenstein_placed,openbind_a71ev2a_c1_knitwork_impure,openbind_a71ev2a_c1_scaffolds

>  <fragmenstein_outcome>  (535) 
acceptable

>  <fragmenstein_error>  (535) 


>  <distance_score>  (535) 
0.866514

>  <inchikey>  (535) 
NGTVSTSCMVXIID-UHFFFAOYSA-N

>  <name>  (535) 
C4745-P440

>  <HIPPO Pose ID>  (535) 
355218

>  <Energy>  (535) 
80.543533

>  <exports>  (535) 
['/opt/xchem-fragalysis-2/maxwin/BulkDock/OUTPUTS/openbind_a71ev2a_c1_knitwork_impure_165VXJF.sdf', '/opt/xchem-fragalysis-2/maxwin/BulkDock/OUTPUTS/openbind_a71ev2a_c1_knitwork_impure_1B07QS4.sdf', '/opt/xchem-fragalysis-2/maxwin/BulkDock/OUTPUTS/openbind_a71ev2a_c1_knitwork_impure_1B07X5R.sdf', '/opt/xchem-fragalysis-2/maxwin/openbind-hippo/a71ev2a/openbind_a71ev2a_c1_scaffold_products.sdf', '/opt/xchem-fragalysis-2/maxwin/openbind-hippo/a71ev2a/cycle_01/bulkdock/openbind_a71ev2a_c1_scaffold_products.sdf', '/opt/xchem-fragalysis-2/maxwin/openbind-hippo/a71ev2a/cycle_01/bulkdock/openbind_a71ev2a_c1_scaffolds.sdf']

>  <fragmenstein_runtime>  (535) 
9.180726

$$$$
C82633-P168
     RDKit          3D

 13 13  0  0  0  0  0  0  0  0999 V2000
    7.4445   14.1545   26.2081 N   0  0  0  0  0  0  0  0  0  0  0  0
    7.1546   14.6482   25.1968 C   0  0  0  0  0  0  0  0  0  0  0  0
    6.7550   15.3714   23.9951 C   0  0  0  0  0  0  0  0  0  0  0  0
    7.6946   14.6696   22.6591 S   0  0  0  0  0  0  0  0  0  0  0  0
    9.0758   14.6001   23.0727 O   0  0  0  0  0  0  0  0  0  0  0  0
    7.0042   13.4986   22.1550 O   0  0  0  0  0  0  0  0  0  0  0  0
    7.5828   15.8323   21.4599 N   0  0  0  0  0  0  0  0  0  0  0  0
    8.7343   16.7474   21.2628 C   0  0  0  0  0  0  0  0  0  0  0  0
    9.8451   16.0876   20.5470 C   0  0  0  0  0  0  0  0  0  0  0  0
   10.9820   15.4430   20.9930 C   0  0  0  0  0  0  0  0  0  0  0  0
   11.8081   14.9324   20.0090 N   0  0  0  0  0  0  0  0  0  0  0  0
   11.2923   15.2142   18.8345 C   0  0  0  0  0  0  0  0  0  0  0  0
    9.8545   16.1308   18.8459 S   0  0  0  0  0  0  0  0  0  0  0  0
  1  2  3  0
  2  3  1  0
  3  4  1  0
  4  5  2  0
  4  6  2  0
  4  7  1  0
  7  8  1  0
  8  9  1  0
  9 10  2  0
 10 11  1  0
 11 12  2  0
 12 13  1  0
 13  9  1  0
M  END
>  <ref_pdb>  (536) 
A3306a

>  <subsites>  (536) 
1 - Active Site

>  <HIPPO Compound ID>  (536) 
39011

>  <energy_score>  (536) 
-36.880742

>  <fragmenstein_mode>  (536) 
expansion

>  <scratch_subdir>  (536) 
/opt/xchem-fragalysis-2/maxwin/BulkDock/SCRATCH/511179/C82633-P168

>  <smiles>  (536) 
N#CCS(=O)(=O)NCc1cncs1

>  <alias>  (536) 
C82633-P168

>  <ref_mols>  (536) 
A3306a,A0719a

>  <inspiration_score>  (536) 
None

>  <tags>  (536) 
BulkDock Fragalysis export,fragmenstein_placed,openbind_a71ev2a_c1_knitwork_impure,openbind_a71ev2a_c1_scaffolds

>  <fragmenstein_outcome>  (536) 
acceptable

>  <fragmenstein_error>  (536) 


>  <distance_score>  (536) 
0.893031

>  <inchikey>  (536) 
FVYPBJNBOMUKIB-UHFFFAOYSA-N

>  <name>  (536) 
C82633-P168

>  <HIPPO Pose ID>  (536) 
355303

>  <Energy>  (536) 
-75.687508

>  <exports>  (536) 
['/opt/xchem-fragalysis-2/maxwin/BulkDock/OUTPUTS/openbind_a71ev2a_c1_knitwork_impure_165VXJF.sdf', '/opt/xchem-fragalysis-2/maxwin/BulkDock/OUTPUTS/openbind_a71ev2a_c1_knitwork_impure_1B07QS4.sdf', '/opt/xchem-fragalysis-2/maxwin/BulkDock/OUTPUTS/openbind_a71ev2a_c1_knitwork_impure_1B07X5R.sdf', '/opt/xchem-fragalysis-2/maxwin/openbind-hippo/a71ev2a/openbind_a71ev2a_c1_scaffold_products.sdf', '/opt/xchem-fragalysis-2/maxwin/openbind-hippo/a71ev2a/cycle_01/bulkdock/openbind_a71ev2a_c1_scaffold_products.sdf', '/opt/xchem-fragalysis-2/maxwin/openbind-hippo/a71ev2a/cycle_01/bulkdock/openbind_a71ev2a_c1_scaffolds.sdf']

>  <fragmenstein_runtime>  (536) 
1.441857

$$$$
C7527-P453
     RDKit          3D

 15 15  0  0  0  0  0  0  0  0999 V2000
    6.4045   10.5541   26.0806 F   0  0  0  0  0  0  0  0  0  0  0  0
    7.3904   11.3272   25.5708 C   0  0  0  0  0  0  0  0  0  0  0  0
    7.8620   12.0876   26.5852 F   0  0  0  0  0  0  0  0  0  0  0  0
    6.8355   12.1686   24.6795 F   0  0  0  0  0  0  0  0  0  0  0  0
    8.5034   10.4531   24.9799 C   0  0  0  0  0  0  0  0  0  0  0  0
    9.5364   11.1211   24.2516 O   0  0  0  0  0  0  0  0  0  0  0  0
   10.2613   12.0698   25.0340 C   0  0  0  0  0  0  0  0  0  0  0  0
    9.7461   13.4924   24.8198 C   0  0  0  0  0  0  0  0  0  0  0  0
    9.9037   13.8198   23.4042 N   0  0  0  0  0  0  0  0  0  0  0  0
    9.8408   15.2506   23.2237 N   0  0  0  0  0  0  0  0  0  0  0  0
   11.1953   15.8108   23.4034 C   0  0  0  0  0  0  0  0  0  0  0  0
   12.2027   15.3578   22.3511 C   0  0  0  0  0  0  0  0  0  0  0  0
   11.7079   15.6895   20.9541 C   0  0  0  0  0  0  0  0  0  0  0  0
   10.2985   15.1618   20.7353 C   0  0  0  0  0  0  0  0  0  0  0  0
    9.3509   15.5770   21.8640 C   0  0  0  0  0  0  0  0  0  0  0  0
  1  2  1  0
  2  3  1  0
  2  4  1  0
  2  5  1  0
  5  6  1  0
  6  7  1  0
  7  8  1  0
  8  9  1  0
  9 10  1  0
 10 11  1  0
 11 12  1  0
 12 13  1  0
 13 14  1  0
 14 15  1  0
 15 10  1  0
M  END
>  <ref_pdb>  (537) 
A4742b

>  <subsites>  (537) 
1 - Active Site

>  <HIPPO Compound ID>  (537) 
5967

>  <energy_score>  (537) 
-42.747717

>  <fragmenstein_mode>  (537) 
expansion

>  <scratch_subdir>  (537) 
/opt/xchem-fragalysis-2/maxwin/BulkDock/SCRATCH/511179/C7527-P453

>  <smiles>  (537) 
FC(F)(F)COCCNN1CCCCC1

>  <alias>  (537) 
C7527-P453

>  <ref_mols>  (537) 
A1445a,A4742b

>  <inspiration_score>  (537) 
None

>  <tags>  (537) 
BulkDock Fragalysis export,fragmenstein_placed,openbind_a71ev2a_c1_knitwork_impure,openbind_a71ev2a_c1_scaffolds

>  <fragmenstein_outcome>  (537) 
acceptable

>  <fragmenstein_error>  (537) 


>  <distance_score>  (537) 
0.941521

>  <inchikey>  (537) 
LSUAPJGZXMGFQN-UHFFFAOYSA-N

>  <name>  (537) 
C7527-P453

>  <HIPPO Pose ID>  (537) 
356033

>  <Energy>  (537) 
104.573764

>  <exports>  (537) 
['/opt/xchem-fragalysis-2/maxwin/BulkDock/OUTPUTS/openbind_a71ev2a_c1_knitwork_impure_165VXJF.sdf', '/opt/xchem-fragalysis-2/maxwin/BulkDock/OUTPUTS/openbind_a71ev2a_c1_knitwork_impure_1B07QS4.sdf', '/opt/xchem-fragalysis-2/maxwin/BulkDock/OUTPUTS/openbind_a71ev2a_c1_knitwork_impure_1B07X5R.sdf', '/opt/xchem-fragalysis-2/maxwin/openbind-hippo/a71ev2a/openbind_a71ev2a_c1_scaffold_products.sdf', '/opt/xchem-fragalysis-2/maxwin/openbind-hippo/a71ev2a/cycle_01/bulkdock/openbind_a71ev2a_c1_scaffold_products.sdf', '/opt/xchem-fragalysis-2/maxwin/openbind-hippo/a71ev2a/cycle_01/bulkdock/openbind_a71ev2a_c1_scaffolds.sdf']

>  <fragmenstein_runtime>  (537) 
3.141133

$$$$
C7529-P453
     RDKit          3D

 13 13  0  0  0  0  0  0  0  0999 V2000
   10.3738   12.9079   25.8385 O   0  0  0  0  0  0  0  0  0  0  0  0
    9.3974   12.9822   25.1869 C   0  0  0  0  0  0  0  0  0  0  0  0
    9.1593   13.6464   23.7767 N   0  0  0  0  0  0  0  0  0  0  0  0
   10.0493   14.2302   22.9030 N   0  0  0  0  0  0  0  0  0  0  0  0
   11.0717   15.0528   23.5545 C   0  0  0  0  0  0  0  0  0  0  0  0
   12.1613   15.3533   22.5362 C   0  0  0  0  0  0  0  0  0  0  0  0
   11.6085   16.0941   21.3313 C   0  0  0  0  0  0  0  0  0  0  0  0
   10.4266   15.3423   20.7345 C   0  0  0  0  0  0  0  0  0  0  0  0
    9.4007   14.9632   21.8036 C   0  0  0  0  0  0  0  0  0  0  0  0
    8.0660   12.3082   25.5510 C   0  0  0  0  0  0  0  0  0  0  0  0
    6.9951   12.9194   24.9726 F   0  0  0  0  0  0  0  0  0  0  0  0
    7.8020   12.2775   26.8785 F   0  0  0  0  0  0  0  0  0  0  0  0
    8.1946   10.6345   24.9712 Cl  0  0  0  0  0  0  0  0  0  0  0  0
  1  2  2  0
  2  3  1  0
  3  4  1  0
  4  5  1  0
  5  6  1  0
  6  7  1  0
  7  8  1  0
  8  9  1  0
  2 10  1  0
 10 11  1  0
 10 12  1  0
 10 13  1  0
  9  4  1  0
M  END
>  <ref_pdb>  (538) 
A4742b

>  <subsites>  (538) 
1 - Active Site

>  <HIPPO Compound ID>  (538) 
6187

>  <energy_score>  (538) 
-5.9766

>  <fragmenstein_mode>  (538) 
expansion

>  <scratch_subdir>  (538) 
/opt/xchem-fragalysis-2/maxwin/BulkDock/SCRATCH/511179/C7529-P453

>  <smiles>  (538) 
O=C(NN1CCCCC1)C(F)(F)Cl

>  <alias>  (538) 
C7529-P453

>  <ref_mols>  (538) 
A1445a,A4742b

>  <inspiration_score>  (538) 
None

>  <tags>  (538) 
BulkDock Fragalysis export,fragmenstein_placed,openbind_a71ev2a_c1_knitwork_impure,openbind_a71ev2a_c1_scaffolds

>  <fragmenstein_outcome>  (538) 
acceptable

>  <fragmenstein_error>  (538) 


>  <distance_score>  (538) 
0.824169

>  <inchikey>  (538) 
FUFCTZFRZVSXTB-UHFFFAOYSA-N

>  <name>  (538) 
C7529-P453

>  <HIPPO Pose ID>  (538) 
356034

>  <Energy>  (538) 
129.372909

>  <exports>  (538) 
['/opt/xchem-fragalysis-2/maxwin/BulkDock/OUTPUTS/openbind_a71ev2a_c1_knitwork_impure_165VXJF.sdf', '/opt/xchem-fragalysis-2/maxwin/BulkDock/OUTPUTS/openbind_a71ev2a_c1_knitwork_impure_1B07QS4.sdf', '/opt/xchem-fragalysis-2/maxwin/BulkDock/OUTPUTS/openbind_a71ev2a_c1_knitwork_impure_1B07X5R.sdf', '/opt/xchem-fragalysis-2/maxwin/openbind-hippo/a71ev2a/openbind_a71ev2a_c1_scaffold_products.sdf', '/opt/xchem-fragalysis-2/maxwin/openbind-hippo/a71ev2a/cycle_01/bulkdock/openbind_a71ev2a_c1_scaffold_products.sdf', '/opt/xchem-fragalysis-2/maxwin/openbind-hippo/a71ev2a/cycle_01/bulkdock/openbind_a71ev2a_c1_scaffolds.sdf']

>  <fragmenstein_runtime>  (538) 
2.008915

$$$$
C5649-P481
     RDKit          3D

 19 21  0  0  0  0  0  0  0  0999 V2000
   21.8802   21.3125    2.1230 O   0  0  0  0  0  0  0  0  0  0  0  0
   21.3779   20.7243    3.0696 C   0  0  0  0  0  0  0  0  0  0  0  0
   20.6130   19.6053    2.9656 O   0  0  0  0  0  0  0  0  0  0  0  0
   20.4688   19.0973    1.6365 C   0  0  0  0  0  0  0  0  0  0  0  0
   19.8154   17.7451    1.7818 C   0  0  0  0  0  0  0  0  0  0  0  0
   18.4178   17.6455    1.8587 C   0  0  0  0  0  0  0  0  0  0  0  0
   17.7869   16.4197    2.1096 C   0  0  0  0  0  0  0  0  0  0  0  0
   18.5829   15.2794    2.2996 C   0  0  0  0  0  0  0  0  0  0  0  0
   18.3592   13.9216    2.6132 C   0  0  0  0  0  0  0  0  0  0  0  0
   19.4902   13.2182    2.7036 N   0  0  0  0  0  0  0  0  0  0  0  0
   20.4505   14.1404    2.4789 N   0  0  0  0  0  0  0  0  0  0  0  0
   19.9644   15.3929    2.2074 C   0  0  0  0  0  0  0  0  0  0  0  0
   20.6159   16.6015    1.9447 C   0  0  0  0  0  0  0  0  0  0  0  0
   21.4757   21.1430    4.5244 C   0  0  1  0  0  0  0  0  0  0  0  0
   22.0789   20.0026    5.3604 C   0  0  0  0  0  0  0  0  0  0  0  0
   22.5223   20.4390    6.7259 C   0  0  0  0  0  0  0  0  0  0  0  0
   22.6314   21.7257    7.0853 C   0  0  0  0  0  0  0  0  0  0  0  0
   22.3697   22.8656    6.1465 C   0  0  0  0  0  0  0  0  0  0  0  0
   22.2994   22.4266    4.6821 C   0  0  0  0  0  0  0  0  0  0  0  0
  1  2  2  0
  2  3  1  0
  3  4  1  0
  4  5  1  0
  5  6  2  0
  6  7  1  0
  7  8  2  0
  8  9  1  0
  9 10  2  0
 10 11  1  0
 11 12  1  0
 12 13  2  0
 14  2  1  6
 14 15  1  0
 15 16  1  0
 16 17  2  0
 17 18  1  0
 18 19  1  0
 13  5  1  0
 19 14  1  0
 12  8  1  0
M  END
>  <ref_pdb>  (539) 
A4836a

>  <subsites>  (539) 
1 - Active Site,6 - A0486/A/147/1

>  <HIPPO Compound ID>  (539) 
10379

>  <energy_score>  (539) 
-41.865667

>  <fragmenstein_mode>  (539) 
expansion

>  <scratch_subdir>  (539) 
/opt/xchem-fragalysis-2/maxwin/BulkDock/SCRATCH/511179/C5649-P481

>  <smiles>  (539) 
O=C(OCc1ccc2cn[nH]c2c1)[C@H]1CC=CCC1

>  <alias>  (539) 
C5649-P481

>  <ref_mols>  (539) 
A0486a,A4836a

>  <inspiration_score>  (539) 
None

>  <tags>  (539) 
BulkDock Fragalysis export,fragmenstein_placed,openbind_a71ev2a_c1_knitwork_impure,openbind_a71ev2a_c1_scaffolds

>  <fragmenstein_outcome>  (539) 
acceptable

>  <fragmenstein_error>  (539) 


>  <distance_score>  (539) 
0.448414

>  <inchikey>  (539) 
MRPNTPLWNNFLQF-UHFFFAOYSA-N

>  <name>  (539) 
C5649-P481

>  <HIPPO Pose ID>  (539) 
356743

>  <Energy>  (539) 
24.528715

>  <exports>  (539) 
['/opt/xchem-fragalysis-2/maxwin/BulkDock/OUTPUTS/openbind_a71ev2a_c1_knitwork_impure_165VXJF.sdf', '/opt/xchem-fragalysis-2/maxwin/BulkDock/OUTPUTS/openbind_a71ev2a_c1_knitwork_impure_1B07QS4.sdf', '/opt/xchem-fragalysis-2/maxwin/BulkDock/OUTPUTS/openbind_a71ev2a_c1_knitwork_impure_1B07X5R.sdf', '/opt/xchem-fragalysis-2/maxwin/openbind-hippo/a71ev2a/openbind_a71ev2a_c1_scaffold_products.sdf', '/opt/xchem-fragalysis-2/maxwin/openbind-hippo/a71ev2a/cycle_01/bulkdock/openbind_a71ev2a_c1_scaffold_products.sdf', '/opt/xchem-fragalysis-2/maxwin/openbind-hippo/a71ev2a/cycle_01/bulkdock/openbind_a71ev2a_c1_scaffolds.sdf']

>  <fragmenstein_runtime>  (539) 
1.387862

$$$$
C4751-P558
     RDKit          3D

 11 12  0  0  0  0  0  0  0  0999 V2000
   11.6353   15.1274   21.5452 C   0  0  0  0  0  0  0  0  0  0  0  0
   11.8910   15.1409   22.9302 C   0  0  0  0  0  0  0  0  0  0  0  0
   10.6535   15.2066   23.5400 C   0  0  0  0  0  0  0  0  0  0  0  0
   10.2766   15.2759   24.8632 N   0  0  0  0  0  0  0  0  0  0  0  0
   11.3380   15.6621   25.8148 C   0  0  0  0  0  0  0  0  0  0  0  0
   10.8802   15.6755   27.2822 C   0  0  0  0  0  0  0  0  0  0  0  0
    9.6234   16.4102   27.4967 N   0  0  0  0  0  0  0  0  0  0  0  0
    8.5904   15.7167   26.6963 C   0  0  0  0  0  0  0  0  0  0  0  0
    8.8995   15.7260   25.1846 C   0  0  0  0  0  0  0  0  0  0  0  0
    9.7606   15.1941   22.4919 N   0  0  0  0  0  0  0  0  0  0  0  0
   10.3301   15.1640   21.2755 N   0  0  0  0  0  0  0  0  0  0  0  0
  1  2  1  0
  2  3  2  0
  3  4  1  0
  4  5  1  0
  5  6  1  0
  6  7  1  0
  7  8  1  0
  8  9  1  0
  3 10  1  0
 10 11  1  0
 11  1  2  0
  9  4  1  0
M  END
>  <ref_pdb>  (540) 
A5079b

>  <subsites>  (540) 
1 - Active Site

>  <HIPPO Compound ID>  (540) 
92873

>  <energy_score>  (540) 
-28.38043

>  <fragmenstein_mode>  (540) 
expansion

>  <scratch_subdir>  (540) 
/opt/xchem-fragalysis-2/maxwin/BulkDock/SCRATCH/511179/C4751-P558

>  <smiles>  (540) 
c1cc(N2CCNCC2)[nH]n1

>  <alias>  (540) 
C4751-P558

>  <ref_mols>  (540) 
A0556a,A5079b

>  <inspiration_score>  (540) 
None

>  <tags>  (540) 
BulkDock Fragalysis export,fragmenstein_placed,openbind_a71ev2a_c1_knitwork_impure,openbind_a71ev2a_c1_scaffolds

>  <fragmenstein_outcome>  (540) 
acceptable

>  <fragmenstein_error>  (540) 


>  <distance_score>  (540) 
0.963381

>  <inchikey>  (540) 
GMRFHKBAYYYVFF-UHFFFAOYSA-N

>  <name>  (540) 
C4751-P558

>  <HIPPO Pose ID>  (540) 
357154

>  <Energy>  (540) 
102.306745

>  <exports>  (540) 
['/opt/xchem-fragalysis-2/maxwin/BulkDock/OUTPUTS/openbind_a71ev2a_c1_knitwork_impure_165VXJF.sdf', '/opt/xchem-fragalysis-2/maxwin/BulkDock/OUTPUTS/openbind_a71ev2a_c1_knitwork_impure_1B07QS4.sdf', '/opt/xchem-fragalysis-2/maxwin/BulkDock/OUTPUTS/openbind_a71ev2a_c1_knitwork_impure_1B07X5R.sdf', '/opt/xchem-fragalysis-2/maxwin/openbind-hippo/a71ev2a/openbind_a71ev2a_c1_scaffold_products.sdf', '/opt/xchem-fragalysis-2/maxwin/openbind-hippo/a71ev2a/cycle_01/bulkdock/openbind_a71ev2a_c1_scaffold_products.sdf', '/opt/xchem-fragalysis-2/maxwin/openbind-hippo/a71ev2a/cycle_01/bulkdock/openbind_a71ev2a_c1_scaffolds.sdf']

>  <fragmenstein_runtime>  (540) 
7.062484

$$$$
C2493-P225
     RDKit          3D

 19 21  0  0  0  0  0  0  0  0999 V2000
    9.3721    9.6434   23.3758 O   0  0  0  0  0  0  0  0  0  0  0  0
    8.9467   10.6977   23.7802 C   0  0  0  0  0  0  0  0  0  0  0  0
    9.5095   12.1210   23.5501 C   0  0  0  0  0  0  0  0  0  0  0  0
   10.6209   12.3552   23.1436 O   0  0  0  0  0  0  0  0  0  0  0  0
    8.5287   12.9907   23.9974 N   0  0  0  0  0  0  0  0  0  0  0  0
    8.5890   14.4427   24.0137 C   0  0  0  0  0  0  0  0  0  0  0  0
    9.5164   15.2105   23.0419 C   0  0  0  0  0  0  0  0  0  0  0  0
   10.9739   15.2808   23.5352 C   0  0  0  0  0  0  0  0  0  0  0  0
   11.9195   15.8723   22.4942 C   0  0  0  0  0  0  0  0  0  0  0  0
   11.7531   15.2535   21.1946 N   0  0  0  0  0  0  0  0  0  0  0  0
   10.4117   15.4762   20.6727 C   0  0  0  0  0  0  0  0  0  0  0  0
    9.3823   14.7907   21.5698 C   0  0  0  0  0  0  0  0  0  0  0  0
    7.5604   12.2623   24.7277 C   0  0  0  0  0  0  0  0  0  0  0  0
    6.5398   12.7330   25.5334 C   0  0  0  0  0  0  0  0  0  0  0  0
    5.7656   11.7899   26.2252 C   0  0  0  0  0  0  0  0  0  0  0  0
    4.4081   12.3965   27.3972 Br  0  0  0  0  0  0  0  0  0  0  0  0
    5.9888   10.4069   26.0887 C   0  0  0  0  0  0  0  0  0  0  0  0
    7.0043    9.9443   25.2560 C   0  0  0  0  0  0  0  0  0  0  0  0
    7.7723   10.8918   24.6144 C   0  0  0  0  0  0  0  0  0  0  0  0
  1  2  2  0
  2  3  1  0
  3  4  2  0
  3  5  1  0
  5  6  1  0
  6  7  1  0
  7  8  1  0
  8  9  1  0
  9 10  1  0
 10 11  1  0
 11 12  1  0
  5 13  1  0
 13 14  2  0
 14 15  1  0
 15 16  1  0
 15 17  2  0
 17 18  1  0
 18 19  2  0
 19  2  1  0
 12  7  1  0
 19 13  1  0
M  END
>  <ref_pdb>  (541) 
A3858a

>  <subsites>  (541) 
1 - Active Site

>  <HIPPO Compound ID>  (541) 
82633

>  <energy_score>  (541) 
-13.908876

>  <fragmenstein_mode>  (541) 
expansion

>  <scratch_subdir>  (541) 
/opt/xchem-fragalysis-2/maxwin/BulkDock/SCRATCH/511179/C2493-P225

>  <smiles>  (541) 
O=C1C(=O)N(CC2CCNCC2)c2cc(Br)ccc21

>  <alias>  (541) 
C2493-P225

>  <ref_mols>  (541) 
A3858a,A2513a

>  <inspiration_score>  (541) 
None

>  <tags>  (541) 
BulkDock Fragalysis export,fragmenstein_placed,openbind_a71ev2a_c1_knitwork_impure,openbind_a71ev2a_c1_scaffolds

>  <fragmenstein_outcome>  (541) 
acceptable

>  <fragmenstein_error>  (541) 


>  <distance_score>  (541) 
0.915184

>  <inchikey>  (541) 
OSQOBRFFSJVYOU-UHFFFAOYSA-N

>  <name>  (541) 
C2493-P225

>  <HIPPO Pose ID>  (541) 
359184

>  <Energy>  (541) 
71.629186

>  <exports>  (541) 
['/opt/xchem-fragalysis-2/maxwin/BulkDock/OUTPUTS/openbind_a71ev2a_c1_knitwork_impure_165VXJF.sdf', '/opt/xchem-fragalysis-2/maxwin/BulkDock/OUTPUTS/openbind_a71ev2a_c1_knitwork_impure_1B07QS4.sdf', '/opt/xchem-fragalysis-2/maxwin/BulkDock/OUTPUTS/openbind_a71ev2a_c1_knitwork_impure_1B07X5R.sdf', '/opt/xchem-fragalysis-2/maxwin/openbind-hippo/a71ev2a/openbind_a71ev2a_c1_scaffold_products.sdf', '/opt/xchem-fragalysis-2/maxwin/openbind-hippo/a71ev2a/cycle_01/bulkdock/openbind_a71ev2a_c1_scaffold_products.sdf', '/opt/xchem-fragalysis-2/maxwin/openbind-hippo/a71ev2a/cycle_01/bulkdock/openbind_a71ev2a_c1_scaffolds.sdf']

>  <fragmenstein_runtime>  (541) 
5.836244

$$$$
C2494-P225
     RDKit          3D

 17 19  0  0  0  0  0  0  0  0999 V2000
    8.8688    9.2311   23.7206 O   0  0  0  0  0  0  0  0  0  0  0  0
    8.5588   10.3580   24.0217 C   0  0  0  0  0  0  0  0  0  0  0  0
    9.1773   11.6633   23.5082 C   0  0  0  0  0  0  0  0  0  0  0  0
   10.0942   11.7050   22.7279 O   0  0  0  0  0  0  0  0  0  0  0  0
    8.4599   12.6934   24.0835 N   0  0  0  0  0  0  0  0  0  0  0  0
    8.5174   14.0857   23.6732 C   0  0  0  0  0  0  0  0  0  0  0  0
    9.5960   14.4593   22.6364 C   0  0  2  0  0  0  0  0  0  0  0  0
   10.9947   14.6059   23.2249 C   0  0  0  0  0  0  0  0  0  0  0  0
   11.7276   15.4240   22.1740 C   0  0  0  0  0  0  0  0  0  0  0  0
   10.6318   16.1362   21.3930 C   0  0  0  0  0  0  0  0  0  0  0  0
    9.3778   15.8068   22.0877 N   0  0  0  0  0  0  0  0  0  0  0  0
    7.4686   12.1674   24.9296 C   0  0  0  0  0  0  0  0  0  0  0  0
    6.5361   12.8334   25.6993 C   0  0  0  0  0  0  0  0  0  0  0  0
    5.6612   12.0641   26.4802 C   0  0  0  0  0  0  0  0  0  0  0  0
    5.7135   10.6582   26.4626 C   0  0  0  0  0  0  0  0  0  0  0  0
    6.6322    9.9985   25.6544 C   0  0  0  0  0  0  0  0  0  0  0  0
    7.4998   10.7759   24.9253 C   0  0  0  0  0  0  0  0  0  0  0  0
  1  2  2  0
  2  3  1  0
  3  4  2  0
  3  5  1  0
  5  6  1  0
  7  6  1  1
  7  8  1  0
  8  9  1  0
  9 10  1  0
 10 11  1  0
  5 12  1  0
 12 13  2  0
 13 14  1  0
 14 15  2  0
 15 16  1  0
 16 17  2  0
 17  2  1  0
 11  7  1  0
 17 12  1  0
M  END
>  <ref_pdb>  (542) 
A3858a

>  <subsites>  (542) 
1 - Active Site

>  <HIPPO Compound ID>  (542) 
4764

>  <energy_score>  (542) 
-20.678379

>  <fragmenstein_mode>  (542) 
expansion

>  <scratch_subdir>  (542) 
/opt/xchem-fragalysis-2/maxwin/BulkDock/SCRATCH/511179/C2494-P225

>  <smiles>  (542) 
O=C1C(=O)N(C[C@@H]2CCCN2)c2ccccc21

>  <alias>  (542) 
C2494-P225

>  <ref_mols>  (542) 
A3858a,A2513a

>  <inspiration_score>  (542) 
None

>  <tags>  (542) 
BulkDock Fragalysis export,fragmenstein_placed,openbind_a71ev2a_c1_knitwork_impure,openbind_a71ev2a_c1_scaffolds

>  <fragmenstein_outcome>  (542) 
acceptable

>  <fragmenstein_error>  (542) 


>  <distance_score>  (542) 
0.851261

>  <inchikey>  (542) 
CJXLGMYFPUVARV-UHFFFAOYSA-N

>  <name>  (542) 
C2494-P225

>  <HIPPO Pose ID>  (542) 
359185

>  <Energy>  (542) 
85.325801

>  <exports>  (542) 
['/opt/xchem-fragalysis-2/maxwin/BulkDock/OUTPUTS/openbind_a71ev2a_c1_knitwork_impure_165VXJF.sdf', '/opt/xchem-fragalysis-2/maxwin/BulkDock/OUTPUTS/openbind_a71ev2a_c1_knitwork_impure_1B07QS4.sdf', '/opt/xchem-fragalysis-2/maxwin/BulkDock/OUTPUTS/openbind_a71ev2a_c1_knitwork_impure_1B07X5R.sdf', '/opt/xchem-fragalysis-2/maxwin/openbind-hippo/a71ev2a/openbind_a71ev2a_c1_scaffold_products.sdf', '/opt/xchem-fragalysis-2/maxwin/openbind-hippo/a71ev2a/cycle_01/bulkdock/openbind_a71ev2a_c1_scaffold_products.sdf', '/opt/xchem-fragalysis-2/maxwin/openbind-hippo/a71ev2a/cycle_01/bulkdock/openbind_a71ev2a_c1_scaffolds.sdf']

>  <fragmenstein_runtime>  (542) 
5.963268

$$$$
C2499-P225
     RDKit          3D

 19 21  0  0  0  0  0  0  0  0999 V2000
    8.8750    9.4430   23.7411 O   0  0  0  0  0  0  0  0  0  0  0  0
    8.5293   10.5644   24.0252 C   0  0  0  0  0  0  0  0  0  0  0  0
    9.1165   11.8939   23.5047 C   0  0  0  0  0  0  0  0  0  0  0  0
   10.0687   11.9479   22.7690 O   0  0  0  0  0  0  0  0  0  0  0  0
    8.3456   12.8993   24.0546 N   0  0  0  0  0  0  0  0  0  0  0  0
    8.3448   14.3199   23.7399 C   0  0  0  0  0  0  0  0  0  0  0  0
    9.4996   15.0053   22.9904 C   0  0  0  0  0  0  0  0  0  0  0  0
   10.8739   14.8341   23.6436 C   0  0  0  0  0  0  0  0  0  0  0  0
   11.9432   15.5597   22.8330 C   0  0  0  0  0  0  0  0  0  0  0  0
   11.9494   15.1165   21.4522 N   0  0  0  0  0  0  0  0  0  0  0  0
   10.6912   15.4238   20.7817 C   0  0  0  0  0  0  0  0  0  0  0  0
    9.5198   14.7315   21.4801 C   0  0  0  0  0  0  0  0  0  0  0  0
    7.3760   12.3340   24.9111 C   0  0  0  0  0  0  0  0  0  0  0  0
    6.4393   12.9825   25.6939 C   0  0  0  0  0  0  0  0  0  0  0  0
    5.6405   12.2093   26.5431 C   0  0  0  0  0  0  0  0  0  0  0  0
    5.7660   10.8106   26.5747 C   0  0  0  0  0  0  0  0  0  0  0  0
    4.7704    9.8585   27.8754 Br  0  0  0  0  0  0  0  0  0  0  0  0
    6.6542   10.1515   25.7285 C   0  0  0  0  0  0  0  0  0  0  0  0
    7.4582   10.9449   24.9345 C   0  0  0  0  0  0  0  0  0  0  0  0
  1  2  2  0
  2  3  1  0
  3  4  2  0
  3  5  1  0
  5  6  1  0
  6  7  1  0
  7  8  1  0
  8  9  1  0
  9 10  1  0
 10 11  1  0
 11 12  1  0
  5 13  1  0
 13 14  2  0
 14 15  1  0
 15 16  2  0
 16 17  1  0
 16 18  1  0
 18 19  2  0
 19  2  1  0
 12  7  1  0
 19 13  1  0
M  END
>  <ref_pdb>  (543) 
A3858a

>  <subsites>  (543) 
1 - Active Site

>  <HIPPO Compound ID>  (543) 
7520

>  <energy_score>  (543) 
-9.05764

>  <fragmenstein_mode>  (543) 
expansion

>  <scratch_subdir>  (543) 
/opt/xchem-fragalysis-2/maxwin/BulkDock/SCRATCH/511179/C2499-P225

>  <smiles>  (543) 
O=C1C(=O)N(CC2CCNCC2)c2ccc(Br)cc21

>  <alias>  (543) 
C2499-P225

>  <ref_mols>  (543) 
A3858a,A2513a

>  <inspiration_score>  (543) 
None

>  <tags>  (543) 
BulkDock Fragalysis export,fragmenstein_placed,openbind_a71ev2a_c1_knitwork_impure,openbind_a71ev2a_c1_scaffolds

>  <fragmenstein_outcome>  (543) 
acceptable

>  <fragmenstein_error>  (543) 


>  <distance_score>  (543) 
0.841464

>  <inchikey>  (543) 
WVOIPXNGWQBXDQ-UHFFFAOYSA-N

>  <name>  (543) 
C2499-P225

>  <HIPPO Pose ID>  (543) 
359190

>  <Energy>  (543) 
65.712136

>  <exports>  (543) 
['/opt/xchem-fragalysis-2/maxwin/BulkDock/OUTPUTS/openbind_a71ev2a_c1_knitwork_impure_165VXJF.sdf', '/opt/xchem-fragalysis-2/maxwin/BulkDock/OUTPUTS/openbind_a71ev2a_c1_knitwork_impure_1B07QS4.sdf', '/opt/xchem-fragalysis-2/maxwin/BulkDock/OUTPUTS/openbind_a71ev2a_c1_knitwork_impure_1B07X5R.sdf', '/opt/xchem-fragalysis-2/maxwin/openbind-hippo/a71ev2a/openbind_a71ev2a_c1_scaffold_products.sdf', '/opt/xchem-fragalysis-2/maxwin/openbind-hippo/a71ev2a/cycle_01/bulkdock/openbind_a71ev2a_c1_scaffold_products.sdf', '/opt/xchem-fragalysis-2/maxwin/openbind-hippo/a71ev2a/cycle_01/bulkdock/openbind_a71ev2a_c1_scaffolds.sdf']

>  <fragmenstein_runtime>  (543) 
7.175848

$$$$
C9370-P276
     RDKit          3D

 15 15  0  0  0  0  0  0  0  0999 V2000
   11.1385   15.4389   20.1018 C   0  0  0  0  0  0  0  0  0  0  0  0
   10.1421   15.4606   21.2467 C   0  0  0  0  0  0  0  0  0  0  0  0
   10.1470   14.1784   21.8826 O   0  0  0  0  0  0  0  0  0  0  0  0
    9.8137   14.3303   23.2983 N   0  0  0  0  0  0  0  0  0  0  0  0
   11.0199   13.9829   24.0329 C   0  0  0  0  0  0  0  0  0  0  0  0
   12.1373   14.9708   23.7781 C   0  0  0  0  0  0  0  0  0  0  0  0
    8.3236   13.6714   23.7511 S   0  0  1  0  0  0  0  0  0  0  0  0
    7.9571   14.4843   24.9850 N   0  0  0  0  0  0  0  0  0  0  0  0
    7.5399   13.4931   22.5508 O   0  0  0  0  0  0  0  0  0  0  0  0
    8.4977   12.1137   24.3918 N   0  0  0  0  0  0  0  0  0  0  0  0
    9.1996   11.0810   23.6457 C   0  0  0  0  0  0  0  0  0  0  0  0
    8.5725    9.7429   23.9794 C   0  0  0  0  0  0  0  0  0  0  0  0
    7.4981   10.0357   24.9979 C   0  0  0  0  0  0  0  0  0  0  0  0
    7.2718   11.5213   24.9213 C   0  0  0  0  0  0  0  0  0  0  0  0
    7.9125   15.4657   24.7208 H   0  0  0  0  0  0  0  0  0  0  0  0
  1  2  1  0
  2  3  1  0
  3  4  1  0
  4  5  1  0
  5  6  1  0
  7  4  1  6
  7  8  2  0
  7  9  2  0
  7 10  1  0
 10 11  1  0
 11 12  1  0
 12 13  1  0
 13 14  1  0
 14 10  1  0
  8 15  1  0
M  END
>  <ref_pdb>  (544) 
A4032a

>  <subsites>  (544) 
1 - Active Site

>  <HIPPO Compound ID>  (544) 
34336

>  <energy_score>  (544) 
-64.221586

>  <fragmenstein_mode>  (544) 
expansion

>  <scratch_subdir>  (544) 
/opt/xchem-fragalysis-2/maxwin/BulkDock/SCRATCH/511180/C9370-P276

>  <smiles>  (544) 
[H]N=[S@](=O)(N1CCCC1)N(CC)OCC

>  <alias>  (544) 
C9370-P276

>  <ref_mols>  (544) 
A4032a,A0719a

>  <inspiration_score>  (544) 
None

>  <tags>  (544) 
BulkDock Fragalysis export,fragmenstein_placed,openbind_a71ev2a_c1_knitwork_impure,openbind_a71ev2a_c1_scaffolds

>  <fragmenstein_outcome>  (544) 
acceptable

>  <fragmenstein_error>  (544) 


>  <distance_score>  (544) 
0.975859

>  <inchikey>  (544) 
QJWWGHKEHQNEQY-UHFFFAOYSA-N

>  <name>  (544) 
C9370-P276

>  <HIPPO Pose ID>  (544) 
359584

>  <Energy>  (544) 
-128.569672

>  <exports>  (544) 
['/opt/xchem-fragalysis-2/maxwin/BulkDock/OUTPUTS/openbind_a71ev2a_c1_knitwork_impure_165VXJF.sdf', '/opt/xchem-fragalysis-2/maxwin/BulkDock/OUTPUTS/openbind_a71ev2a_c1_knitwork_impure_1B07QS4.sdf', '/opt/xchem-fragalysis-2/maxwin/BulkDock/OUTPUTS/openbind_a71ev2a_c1_knitwork_impure_1B07X5R.sdf', '/opt/xchem-fragalysis-2/maxwin/openbind-hippo/a71ev2a/openbind_a71ev2a_c1_scaffold_products.sdf', '/opt/xchem-fragalysis-2/maxwin/openbind-hippo/a71ev2a/cycle_01/bulkdock/openbind_a71ev2a_c1_scaffold_products.sdf', '/opt/xchem-fragalysis-2/maxwin/openbind-hippo/a71ev2a/cycle_01/bulkdock/openbind_a71ev2a_c1_scaffolds.sdf']

>  <fragmenstein_runtime>  (544) 
5.762255

$$$$
C9393-P77
     RDKit          3D

 15 15  0  0  0  0  0  0  0  0999 V2000
   11.3085   14.7672   18.5575 C   0  0  0  0  0  0  0  0  0  0  0  0
   10.5984   15.7712   19.4300 C   0  0  0  0  0  0  0  0  0  0  0  0
   11.2469   15.8190   20.8120 C   0  0  0  0  0  0  0  0  0  0  0  0
   10.7259   14.6968   21.6737 C   0  0  1  0  0  0  0  0  0  0  0  0
   11.8836   14.4545   23.2120 Br  0  0  0  0  0  0  0  0  0  0  0  0
    9.2747   14.9469   22.0521 C   0  0  0  0  0  0  0  0  0  0  0  0
    9.0278   14.5471   23.4188 N   0  0  0  0  0  0  0  0  0  0  0  0
    7.7115   13.6894   23.8136 S   0  0  0  0  0  0  0  0  0  0  0  0
    7.0080   14.4153   24.8348 O   0  0  0  0  0  0  0  0  0  0  0  0
    7.1018   13.1551   22.6215 O   0  0  0  0  0  0  0  0  0  0  0  0
    8.4706   12.4388   24.6044 N   0  0  0  0  0  0  0  0  0  0  0  0
    9.5030   11.6691   23.8849 C   0  0  0  0  0  0  0  0  0  0  0  0
    9.1271   10.2159   24.0295 C   0  0  0  0  0  0  0  0  0  0  0  0
    8.1214   10.1848   25.1494 C   0  0  0  0  0  0  0  0  0  0  0  0
    7.5015   11.5412   25.2380 C   0  0  0  0  0  0  0  0  0  0  0  0
  1  2  1  0
  2  3  1  0
  3  4  1  0
  4  5  1  1
  4  6  1  0
  6  7  1  0
  7  8  1  0
  8  9  2  0
  8 10  2  0
  8 11  1  0
 11 12  1  0
 12 13  1  0
 13 14  1  0
 14 15  1  0
 15 11  1  0
M  END
>  <ref_pdb>  (545) 
A0719a

>  <subsites>  (545) 
1 - Active Site

>  <HIPPO Compound ID>  (545) 
18943

>  <energy_score>  (545) 
-77.534816

>  <fragmenstein_mode>  (545) 
expansion

>  <scratch_subdir>  (545) 
/opt/xchem-fragalysis-2/maxwin/BulkDock/SCRATCH/511180/C9393-P77

>  <smiles>  (545) 
CCC[C@@H](Br)CNS(=O)(=O)N1CCCC1

>  <alias>  (545) 
C9393-P77

>  <ref_mols>  (545) 
A4032a,A0719a

>  <inspiration_score>  (545) 
None

>  <tags>  (545) 
BulkDock Fragalysis export,fragmenstein_placed,openbind_a71ev2a_c1_knitwork_impure,openbind_a71ev2a_c1_scaffolds

>  <fragmenstein_outcome>  (545) 
acceptable

>  <fragmenstein_error>  (545) 


>  <distance_score>  (545) 
0.929385

>  <inchikey>  (545) 
YUJANCLQKWVXAZ-UHFFFAOYSA-N

>  <name>  (545) 
C9393-P77

>  <HIPPO Pose ID>  (545) 
359603

>  <Energy>  (545) 
-147.688622

>  <exports>  (545) 
['/opt/xchem-fragalysis-2/maxwin/BulkDock/OUTPUTS/openbind_a71ev2a_c1_knitwork_impure_165VXJF.sdf', '/opt/xchem-fragalysis-2/maxwin/BulkDock/OUTPUTS/openbind_a71ev2a_c1_knitwork_impure_1B07QS4.sdf', '/opt/xchem-fragalysis-2/maxwin/BulkDock/OUTPUTS/openbind_a71ev2a_c1_knitwork_impure_1B07X5R.sdf', '/opt/xchem-fragalysis-2/maxwin/openbind-hippo/a71ev2a/openbind_a71ev2a_c1_scaffold_products.sdf', '/opt/xchem-fragalysis-2/maxwin/openbind-hippo/a71ev2a/cycle_01/bulkdock/openbind_a71ev2a_c1_scaffold_products.sdf', '/opt/xchem-fragalysis-2/maxwin/openbind-hippo/a71ev2a/cycle_01/bulkdock/openbind_a71ev2a_c1_scaffolds.sdf']

>  <fragmenstein_runtime>  (545) 
5.836241

$$$$
C9394-P276
     RDKit          3D

 13 13  0  0  0  0  0  0  0  0999 V2000
    5.5477   10.5573   27.1108 C   0  0  0  0  0  0  0  0  0  0  0  0
    5.9432    9.8419   26.0488 C   0  0  0  0  0  0  0  0  0  0  0  0
    7.1240   10.0674   25.1470 C   0  0  0  0  0  0  0  0  0  0  0  0
    7.9442   11.1563   25.5436 O   0  0  0  0  0  0  0  0  0  0  0  0
    7.3437   12.4264   25.3205 C   0  0  0  0  0  0  0  0  0  0  0  0
    8.0177   13.2332   24.2242 C   0  0  1  0  0  0  0  0  0  0  0  0
    7.5138   14.5774   24.3167 O   0  0  0  0  0  0  0  0  0  0  0  0
    9.5504   13.2762   24.3199 C   0  0  0  0  0  0  0  0  0  0  0  0
   10.0529   14.4167   23.5233 N   0  0  0  0  0  0  0  0  0  0  0  0
   11.4729   14.6736   23.7661 C   0  0  0  0  0  0  0  0  0  0  0  0
   11.8082   15.6372   22.6431 C   0  0  0  0  0  0  0  0  0  0  0  0
   10.9334   15.2046   21.4783 C   0  0  0  0  0  0  0  0  0  0  0  0
    9.9694   14.1903   22.0743 C   0  0  0  0  0  0  0  0  0  0  0  0
  1  2  2  0
  2  3  1  0
  3  4  1  0
  4  5  1  0
  5  6  1  0
  6  7  1  1
  6  8  1  0
  8  9  1  0
  9 10  1  0
 10 11  1  0
 11 12  1  0
 12 13  1  0
 13  9  1  0
M  END
>  <ref_pdb>  (546) 
A4032a

>  <subsites>  (546) 
1 - Active Site

>  <HIPPO Compound ID>  (546) 
6038

>  <energy_score>  (546) 
-23.697264

>  <fragmenstein_mode>  (546) 
expansion

>  <scratch_subdir>  (546) 
/opt/xchem-fragalysis-2/maxwin/BulkDock/SCRATCH/511180/C9394-P276

>  <smiles>  (546) 
C=CCOC[C@@H](O)CN1CCCC1

>  <alias>  (546) 
C9394-P276

>  <ref_mols>  (546) 
A4032a,A0719a

>  <inspiration_score>  (546) 
None

>  <tags>  (546) 
BulkDock Fragalysis export,fragmenstein_placed,openbind_a71ev2a_c1_knitwork_impure,openbind_a71ev2a_c1_scaffolds

>  <fragmenstein_outcome>  (546) 
acceptable

>  <fragmenstein_error>  (546) 


>  <distance_score>  (546) 
0.917698

>  <inchikey>  (546) 
GOLAEVZHHBNYFC-UHFFFAOYSA-N

>  <name>  (546) 
C9394-P276

>  <HIPPO Pose ID>  (546) 
359604

>  <Energy>  (546) 
54.161945

>  <exports>  (546) 
['/opt/xchem-fragalysis-2/maxwin/BulkDock/OUTPUTS/openbind_a71ev2a_c1_knitwork_impure_165VXJF.sdf', '/opt/xchem-fragalysis-2/maxwin/BulkDock/OUTPUTS/openbind_a71ev2a_c1_knitwork_impure_1B07QS4.sdf', '/opt/xchem-fragalysis-2/maxwin/BulkDock/OUTPUTS/openbind_a71ev2a_c1_knitwork_impure_1B07X5R.sdf', '/opt/xchem-fragalysis-2/maxwin/openbind-hippo/a71ev2a/openbind_a71ev2a_c1_scaffold_products.sdf', '/opt/xchem-fragalysis-2/maxwin/openbind-hippo/a71ev2a/cycle_01/bulkdock/openbind_a71ev2a_c1_scaffold_products.sdf', '/opt/xchem-fragalysis-2/maxwin/openbind-hippo/a71ev2a/cycle_01/bulkdock/openbind_a71ev2a_c1_scaffolds.sdf']

>  <fragmenstein_runtime>  (546) 
1.749769

$$$$
C9396-P276
     RDKit          3D

 14 14  0  0  0  0  0  0  0  0999 V2000
    4.7814   12.0032   26.5248 C   0  0  0  0  0  0  0  0  0  0  0  0
    5.3794   10.6334   26.8197 C   0  0  0  0  0  0  0  0  0  0  0  0
    5.5658   10.5814   28.3356 C   0  0  0  0  0  0  0  0  0  0  0  0
    6.5957   10.2940   25.9364 C   0  0  0  0  0  0  0  0  0  0  0  0
    7.5290   11.3688   25.7717 O   0  0  0  0  0  0  0  0  0  0  0  0
    7.3367   11.9871   24.4965 C   0  0  0  0  0  0  0  0  0  0  0  0
    8.2156   13.2154   24.2521 C   0  0  1  0  0  0  0  0  0  0  0  0
    8.1645   14.0864   25.3820 O   0  0  0  0  0  0  0  0  0  0  0  0
    9.6547   12.8087   23.8957 C   0  0  0  0  0  0  0  0  0  0  0  0
   10.4854   13.7771   23.1875 N   0  0  0  0  0  0  0  0  0  0  0  0
   11.0521   14.8456   23.9902 C   0  0  0  0  0  0  0  0  0  0  0  0
   11.6805   15.7433   22.9302 C   0  0  0  0  0  0  0  0  0  0  0  0
   11.0342   15.3587   21.6082 C   0  0  0  0  0  0  0  0  0  0  0  0
    9.9090   14.4314   22.0172 C   0  0  0  0  0  0  0  0  0  0  0  0
  1  2  1  0
  2  3  1  0
  2  4  1  0
  4  5  1  0
  5  6  1  0
  6  7  1  0
  7  8  1  1
  7  9  1  0
  9 10  1  0
 10 11  1  0
 11 12  1  0
 12 13  1  0
 13 14  1  0
 14 10  1  0
M  END
>  <ref_pdb>  (547) 
A4032a

>  <subsites>  (547) 
1 - Active Site

>  <HIPPO Compound ID>  (547) 
2124

>  <energy_score>  (547) 
-26.246961

>  <fragmenstein_mode>  (547) 
expansion

>  <scratch_subdir>  (547) 
/opt/xchem-fragalysis-2/maxwin/BulkDock/SCRATCH/511180/C9396-P276

>  <smiles>  (547) 
CC(C)COC[C@@H](O)CN1CCCC1

>  <alias>  (547) 
C9396-P276

>  <ref_mols>  (547) 
A4032a,A0719a

>  <inspiration_score>  (547) 
None

>  <tags>  (547) 
BulkDock Fragalysis export,fragmenstein_placed,openbind_a71ev2a_c1_knitwork_impure,openbind_a71ev2a_c1_scaffolds

>  <fragmenstein_outcome>  (547) 
acceptable

>  <fragmenstein_error>  (547) 


>  <distance_score>  (547) 
0.966217

>  <inchikey>  (547) 
IIGXHTIDEPJZDV-UHFFFAOYSA-N

>  <name>  (547) 
C9396-P276

>  <HIPPO Pose ID>  (547) 
359606

>  <Energy>  (547) 
65.606342

>  <exports>  (547) 
['/opt/xchem-fragalysis-2/maxwin/BulkDock/OUTPUTS/openbind_a71ev2a_c1_knitwork_impure_165VXJF.sdf', '/opt/xchem-fragalysis-2/maxwin/BulkDock/OUTPUTS/openbind_a71ev2a_c1_knitwork_impure_1B07QS4.sdf', '/opt/xchem-fragalysis-2/maxwin/BulkDock/OUTPUTS/openbind_a71ev2a_c1_knitwork_impure_1B07X5R.sdf', '/opt/xchem-fragalysis-2/maxwin/openbind-hippo/a71ev2a/openbind_a71ev2a_c1_scaffold_products.sdf', '/opt/xchem-fragalysis-2/maxwin/openbind-hippo/a71ev2a/cycle_01/bulkdock/openbind_a71ev2a_c1_scaffold_products.sdf', '/opt/xchem-fragalysis-2/maxwin/openbind-hippo/a71ev2a/cycle_01/bulkdock/openbind_a71ev2a_c1_scaffolds.sdf']

>  <fragmenstein_runtime>  (547) 
3.012863

$$$$
C956-P51
     RDKit          3D

 18 20  0  0  0  0  0  0  0  0999 V2000
   22.4482   14.4859    2.9898 C   0  0  0  0  0  0  0  0  0  0  0  0
   22.8345   13.8479    1.7150 C   0  0  0  0  0  0  0  0  0  0  0  0
   22.1499   13.8647    0.5884 N   0  0  0  0  0  0  0  0  0  0  0  0
   22.8702   13.1813   -0.3643 N   0  0  0  0  0  0  0  0  0  0  0  0
   23.9805   12.7545    0.2017 C   0  0  0  0  0  0  0  0  0  0  0  0
   23.9908   13.1470    1.5133 N   0  0  0  0  0  0  0  0  0  0  0  0
   25.0970   12.9504    2.4250 C   0  0  0  0  0  0  0  0  0  0  0  0
   26.1345   11.9574    1.8956 C   0  0  0  0  0  0  0  0  0  0  0  0
   26.3930   12.1649    0.4011 C   0  0  0  0  0  0  0  0  0  0  0  0
   25.0993   11.9809   -0.4036 C   0  0  2  0  0  0  0  0  0  0  0  0
   25.2616   12.4016   -1.7707 N   0  0  0  0  0  0  0  0  0  0  0  0
   26.2177   11.8890   -2.8719 C   0  0  0  0  0  0  0  0  0  0  0  0
   27.0742   11.1002   -2.8213 O   0  0  0  0  0  0  0  0  0  0  0  0
   25.8509   12.6575   -4.1369 C   0  0  0  0  0  0  0  0  0  0  0  0
   26.6952   12.2555   -5.3552 C   0  0  0  0  0  0  0  0  0  0  0  0
   26.4204   13.0678   -6.6516 C   0  0  0  0  0  0  0  0  0  0  0  0
   27.8006   14.1880   -6.2620 S   0  0  0  0  0  0  0  0  0  0  0  0
   28.1960   12.6708   -5.3315 C   0  0  0  0  0  0  0  0  0  0  0  0
  1  2  1  0
  2  3  2  0
  3  4  1  0
  4  5  2  0
  5  6  1  0
  6  7  1  0
  7  8  1  0
  8  9  1  0
  9 10  1  0
 10 11  1  6
 11 12  1  0
 12 13  2  0
 12 14  1  0
 14 15  1  0
 15 16  1  0
 16 17  1  0
 17 18  1  0
  6  2  1  0
 18 15  1  0
 10  5  1  0
M  END
>  <ref_pdb>  (548) 
A0239a

>  <subsites>  (548) 
1 - Active Site,6 - A0486/A/147/1

>  <HIPPO Compound ID>  (548) 
11982

>  <energy_score>  (548) 
-25.478688

>  <fragmenstein_mode>  (548) 
expansion

>  <scratch_subdir>  (548) 
/opt/xchem-fragalysis-2/maxwin/BulkDock/SCRATCH/511180/C956-P51

>  <smiles>  (548) 
Cc1nnc2n1CCC[C@@H]2NC(=O)CC1CSC1

>  <alias>  (548) 
C956-P51

>  <ref_mols>  (548) 
A3616a,A4855a,A0239a,A4032a,A4274a,A3207a,A3982a

>  <inspiration_score>  (548) 
None

>  <tags>  (548) 
BulkDock Fragalysis export,fragmenstein_placed,openbind_a71ev2a_c1_knitwork_impure,openbind_a71ev2a_c1_scaffolds

>  <fragmenstein_outcome>  (548) 
acceptable

>  <fragmenstein_error>  (548) 


>  <distance_score>  (548) 
0.34347

>  <inchikey>  (548) 
FIVHXQGGXYYQJB-UHFFFAOYSA-N

>  <name>  (548) 
C956-P51

>  <HIPPO Pose ID>  (548) 
359869

>  <Energy>  (548) 
-12.057002

>  <exports>  (548) 
['/opt/xchem-fragalysis-2/maxwin/BulkDock/OUTPUTS/openbind_a71ev2a_c1_knitwork_impure_165VXJF.sdf', '/opt/xchem-fragalysis-2/maxwin/BulkDock/OUTPUTS/openbind_a71ev2a_c1_knitwork_impure_1B07QS4.sdf', '/opt/xchem-fragalysis-2/maxwin/BulkDock/OUTPUTS/openbind_a71ev2a_c1_knitwork_impure_1B07X5R.sdf', '/opt/xchem-fragalysis-2/maxwin/openbind-hippo/a71ev2a/openbind_a71ev2a_c1_scaffold_products.sdf', '/opt/xchem-fragalysis-2/maxwin/openbind-hippo/a71ev2a/cycle_01/bulkdock/openbind_a71ev2a_c1_scaffold_products.sdf', '/opt/xchem-fragalysis-2/maxwin/openbind-hippo/a71ev2a/cycle_01/bulkdock/openbind_a71ev2a_c1_scaffolds.sdf']

>  <fragmenstein_runtime>  (548) 
2.35799

$$$$
C4761-P619
     RDKit          3D

 11 12  0  0  0  0  0  0  0  0999 V2000
    7.1749   10.6324   25.3217 C   0  0  0  0  0  0  0  0  0  0  0  0
    7.4637    9.3613   25.0494 N   0  0  0  0  0  0  0  0  0  0  0  0
    8.4677    9.4392   24.1581 N   0  0  0  0  0  0  0  0  0  0  0  0
    8.8051   10.7240   23.8561 C   0  0  0  0  0  0  0  0  0  0  0  0
    7.9656   11.5430   24.5876 C   0  0  0  0  0  0  0  0  0  0  0  0
    7.9224   13.0409   24.5993 C   0  0  1  0  0  0  0  0  0  0  0  0
    8.2589   13.5965   23.2007 C   0  0  0  0  0  0  0  0  0  0  0  0
    8.3194   15.3950   23.1902 S   0  0  0  0  0  0  0  0  0  0  0  0
    6.6706   15.6929   23.8990 C   0  0  0  0  0  0  0  0  0  0  0  0
    6.4899   14.9224   25.2123 C   0  0  0  0  0  0  0  0  0  0  0  0
    6.5968   13.4593   25.0991 N   0  0  0  0  0  0  0  0  0  0  0  0
  1  2  2  0
  2  3  1  0
  3  4  1  0
  4  5  2  0
  6  5  1  6
  6  7  1  0
  7  8  1  0
  8  9  1  0
  9 10  1  0
 10 11  1  0
  5  1  1  0
 11  6  1  0
M  END
>  <ref_pdb>  (549) 
A5427a

>  <subsites>  (549) 
1 - Active Site

>  <HIPPO Compound ID>  (549) 
35059

>  <energy_score>  (549) 
-35.82043

>  <fragmenstein_mode>  (549) 
expansion

>  <scratch_subdir>  (549) 
/opt/xchem-fragalysis-2/maxwin/BulkDock/SCRATCH/511180/C4761-P619

>  <smiles>  (549) 
c1n[nH]cc1[C@H]1CSCCN1

>  <alias>  (549) 
C4761-P619

>  <ref_mols>  (549) 
A5427a,A0556a

>  <inspiration_score>  (549) 
None

>  <tags>  (549) 
BulkDock Fragalysis export,fragmenstein_placed,openbind_a71ev2a_c1_knitwork_impure,openbind_a71ev2a_c1_scaffolds

>  <fragmenstein_outcome>  (549) 
acceptable

>  <fragmenstein_error>  (549) 


>  <distance_score>  (549) 
0.893035

>  <inchikey>  (549) 
ZXIQETDVUZSVBJ-UHFFFAOYSA-N

>  <name>  (549) 
C4761-P619

>  <HIPPO Pose ID>  (549) 
360115

>  <Energy>  (549) 
55.442537

>  <exports>  (549) 
['/opt/xchem-fragalysis-2/maxwin/BulkDock/OUTPUTS/openbind_a71ev2a_c1_knitwork_impure_165VXJF.sdf', '/opt/xchem-fragalysis-2/maxwin/BulkDock/OUTPUTS/openbind_a71ev2a_c1_knitwork_impure_1B07QS4.sdf', '/opt/xchem-fragalysis-2/maxwin/BulkDock/OUTPUTS/openbind_a71ev2a_c1_knitwork_impure_1B07X5R.sdf', '/opt/xchem-fragalysis-2/maxwin/openbind-hippo/a71ev2a/openbind_a71ev2a_c1_scaffold_products.sdf', '/opt/xchem-fragalysis-2/maxwin/openbind-hippo/a71ev2a/cycle_01/bulkdock/openbind_a71ev2a_c1_scaffold_products.sdf', '/opt/xchem-fragalysis-2/maxwin/openbind-hippo/a71ev2a/cycle_01/bulkdock/openbind_a71ev2a_c1_scaffolds.sdf']

>  <fragmenstein_runtime>  (549) 
0.644999

$$$$
C31977-P124
     RDKit          3D

 15 16  0  0  0  0  0  0  0  0999 V2000
    6.5262   12.8905   27.8866 C   0  0  0  0  0  0  0  0  0  0  0  0
    5.9935   12.6323   26.4829 C   0  0  1  0  0  0  0  0  0  0  0  0
    4.8155   11.9413   26.6525 F   0  0  0  0  0  0  0  0  0  0  0  0
    5.6743   13.8907   25.7958 C   0  0  0  0  0  0  0  0  0  0  0  0
    5.4473   14.9030   25.2775 N   0  0  0  0  0  0  0  0  0  0  0  0
    6.9078   11.7559   25.6087 C   0  0  0  0  0  0  0  0  0  0  0  0
    8.3339   12.1108   25.5749 N   0  0  0  0  0  0  0  0  0  0  0  0
    8.6858   13.4875   25.1493 C   0  0  0  0  0  0  0  0  0  0  0  0
   10.1178   13.4610   24.6368 C   0  0  0  0  0  0  0  0  0  0  0  0
   10.1859   12.0706   24.1319 C   0  0  0  0  0  0  0  0  0  0  0  0
   11.1148   11.5090   23.2709 C   0  0  0  0  0  0  0  0  0  0  0  0
   10.9957   10.1589   22.9638 C   0  0  0  0  0  0  0  0  0  0  0  0
    9.9619    9.4047   23.5183 C   0  0  0  0  0  0  0  0  0  0  0  0
    9.0362    9.9929   24.3872 C   0  0  0  0  0  0  0  0  0  0  0  0
    9.1436   11.3341   24.6977 C   0  0  0  0  0  0  0  0  0  0  0  0
  2  1  1  1
  2  3  1  0
  2  4  1  0
  4  5  3  0
  2  6  1  0
  6  7  1  0
  7  8  1  0
  8  9  1  0
  9 10  1  0
 10 11  2  0
 11 12  1  0
 12 13  2  0
 13 14  1  0
 14 15  2  0
 15  7  1  0
 15 10  1  0
M  END
>  <ref_pdb>  (550) 
A1778a

>  <subsites>  (550) 
1 - Active Site

>  <HIPPO Compound ID>  (550) 
130294

>  <energy_score>  (550) 
-15.995182

>  <fragmenstein_mode>  (550) 
expansion

>  <scratch_subdir>  (550) 
/opt/xchem-fragalysis-2/maxwin/BulkDock/SCRATCH/511180/C31977-P124

>  <smiles>  (550) 
C[C@@](F)(C#N)CN1CCc2ccccc21

>  <alias>  (550) 
C31977-P124

>  <ref_mols>  (550) 
A1778a,A3975a

>  <inspiration_score>  (550) 
None

>  <tags>  (550) 
BulkDock Fragalysis export,fragmenstein_placed,openbind_a71ev2a_c1_knitwork_impure,openbind_a71ev2a_c1_scaffolds

>  <fragmenstein_outcome>  (550) 
acceptable

>  <fragmenstein_error>  (550) 


>  <distance_score>  (550) 
0.737281

>  <inchikey>  (550) 
HVLXCUMSINBNKL-UHFFFAOYSA-N

>  <name>  (550) 
C31977-P124

>  <HIPPO Pose ID>  (550) 
360328

>  <Energy>  (550) 
73.179742

>  <exports>  (550) 
['/opt/xchem-fragalysis-2/maxwin/BulkDock/OUTPUTS/openbind_a71ev2a_c1_knitwork_impure_165VXJF.sdf', '/opt/xchem-fragalysis-2/maxwin/BulkDock/OUTPUTS/openbind_a71ev2a_c1_knitwork_impure_1B07QS4.sdf', '/opt/xchem-fragalysis-2/maxwin/BulkDock/OUTPUTS/openbind_a71ev2a_c1_knitwork_impure_1B07X5R.sdf', '/opt/xchem-fragalysis-2/maxwin/openbind-hippo/a71ev2a/openbind_a71ev2a_c1_scaffold_products.sdf', '/opt/xchem-fragalysis-2/maxwin/openbind-hippo/a71ev2a/cycle_01/bulkdock/openbind_a71ev2a_c1_scaffold_products.sdf', '/opt/xchem-fragalysis-2/maxwin/openbind-hippo/a71ev2a/cycle_01/bulkdock/openbind_a71ev2a_c1_scaffolds.sdf']

>  <fragmenstein_runtime>  (550) 
2.831367

$$$$
C10642-P391
     RDKit          3D

 14 14  0  0  0  0  0  0  0  0999 V2000
    5.3201   15.0302   22.0444 F   0  0  0  0  0  0  0  0  0  0  0  0
    6.5324   14.6456   22.5179 C   0  0  0  0  0  0  0  0  0  0  0  0
    6.7971   13.4373   21.9734 F   0  0  0  0  0  0  0  0  0  0  0  0
    7.4253   15.5461   22.0703 F   0  0  0  0  0  0  0  0  0  0  0  0
    6.4866   14.5752   24.0260 C   0  0  0  0  0  0  0  0  0  0  0  0
    7.8286   14.2495   24.6520 C   0  0  0  0  0  0  0  0  0  0  0  0
    8.3603   13.0468   24.0917 O   0  0  0  0  0  0  0  0  0  0  0  0
    9.5610   12.7039   24.7294 N   0  0  0  0  0  0  0  0  0  0  0  0
   10.6202   13.2463   24.1975 C   0  0  0  0  0  0  0  0  0  0  0  0
   10.6817   14.1368   23.0587 C   0  0  0  0  0  0  0  0  0  0  0  0
   11.7243   14.9862   22.7657 C   0  0  0  0  0  0  0  0  0  0  0  0
   11.4483   15.6225   21.5958 O   0  0  0  0  0  0  0  0  0  0  0  0
   10.2414   15.1142   21.2276 C   0  0  0  0  0  0  0  0  0  0  0  0
    9.7214   14.2581   22.0811 N   0  0  0  0  0  0  0  0  0  0  0  0
  1  2  1  0
  2  3  1  0
  2  4  1  0
  2  5  1  0
  5  6  1  0
  6  7  1  0
  7  8  1  0
  8  9  2  3
  9 10  1  0
 10 11  2  0
 11 12  1  0
 12 13  1  0
 13 14  2  0
 14 10  1  0
M  END
>  <ref_pdb>  (551) 
A4526a

>  <subsites>  (551) 
1 - Active Site

>  <HIPPO Compound ID>  (551) 
55269

>  <energy_score>  (551) 
-20.679421

>  <fragmenstein_mode>  (551) 
expansion

>  <scratch_subdir>  (551) 
/opt/xchem-fragalysis-2/maxwin/BulkDock/SCRATCH/511180/C10642-P391

>  <smiles>  (551) 
FC(F)(F)CCON=Cc1cocn1

>  <alias>  (551) 
C10642-P391

>  <ref_mols>  (551) 
A3623a,A4526a

>  <inspiration_score>  (551) 
None

>  <tags>  (551) 
BulkDock Fragalysis export,fragmenstein_placed,openbind_a71ev2a_c1_knitwork_impure,openbind_a71ev2a_c1_scaffolds

>  <fragmenstein_outcome>  (551) 
acceptable

>  <fragmenstein_error>  (551) 


>  <distance_score>  (551) 
0.925817

>  <inchikey>  (551) 
OORBTWFKCNWGNJ-UHFFFAOYSA-N

>  <name>  (551) 
C10642-P391

>  <HIPPO Pose ID>  (551) 
360634

>  <Energy>  (551) 
38.680006

>  <exports>  (551) 
['/opt/xchem-fragalysis-2/maxwin/BulkDock/OUTPUTS/openbind_a71ev2a_c1_knitwork_impure_165VXJF.sdf', '/opt/xchem-fragalysis-2/maxwin/BulkDock/OUTPUTS/openbind_a71ev2a_c1_knitwork_impure_1B07QS4.sdf', '/opt/xchem-fragalysis-2/maxwin/BulkDock/OUTPUTS/openbind_a71ev2a_c1_knitwork_impure_1B07X5R.sdf', '/opt/xchem-fragalysis-2/maxwin/openbind-hippo/a71ev2a/openbind_a71ev2a_c1_scaffold_products.sdf', '/opt/xchem-fragalysis-2/maxwin/openbind-hippo/a71ev2a/cycle_01/bulkdock/openbind_a71ev2a_c1_scaffold_products.sdf', '/opt/xchem-fragalysis-2/maxwin/openbind-hippo/a71ev2a/cycle_01/bulkdock/openbind_a71ev2a_c1_scaffolds.sdf']

>  <fragmenstein_runtime>  (551) 
2.318567

$$$$
C7479-P391
     RDKit          3D

 23 24  0  0  0  0  0  0  0  0999 V2000
    3.5320   12.3410   18.0294 C   0  0  0  0  0  0  0  0  0  0  0  0
    3.2767   12.4336   19.5336 C   0  0  0  0  0  0  0  0  0  0  0  0
    2.1606   11.4723   19.9374 C   0  0  0  0  0  0  0  0  0  0  0  0
    2.9470   13.8198   19.9283 C   0  0  0  0  0  0  0  0  0  0  0  0
    2.0056   14.4403   19.1593 O   0  0  0  0  0  0  0  0  0  0  0  0
    1.9342   15.6867   19.6670 C   0  0  0  0  0  0  0  0  0  0  0  0
    2.7216   15.9190   20.6961 N   0  0  0  0  0  0  0  0  0  0  0  0
    3.3405   14.7026   20.9183 C   0  0  0  0  0  0  0  0  0  0  0  0
    4.2569   14.5093   22.0837 C   0  0  0  0  0  0  0  0  0  0  0  0
    5.4856   15.2446   21.8211 N   0  0  0  0  0  0  0  0  0  0  0  0
    6.9293   14.5800   22.3187 S   0  0  0  0  0  0  0  0  0  0  0  0
    6.7783   13.1657   22.0050 O   0  0  0  0  0  0  0  0  0  0  0  0
    7.8899   15.2839   21.4966 O   0  0  0  0  0  0  0  0  0  0  0  0
    6.8278   14.9187   23.8091 N   0  0  0  0  0  0  0  0  0  0  0  0
    8.1829   14.7438   24.5144 S   0  0  2  0  0  0  0  0  0  0  0  0
    7.9486   15.3362   26.1773 C   0  0  0  0  0  0  0  0  0  0  0  0
    9.4170   15.3520   24.0646 O   0  0  0  0  0  0  0  0  0  0  0  0
    8.5503   13.0076   24.8069 C   0  0  0  0  0  0  0  0  0  0  0  0
    9.4512   12.4172   23.7280 C   0  0  0  0  0  0  0  0  0  0  0  0
    9.8252   10.9747   24.0221 C   0  0  0  0  0  0  0  0  0  0  0  0
    8.6702   10.0758   24.3923 C   0  0  0  0  0  0  0  0  0  0  0  0
    7.6859   10.7100   25.3493 C   0  0  0  0  0  0  0  0  0  0  0  0
    7.3094   12.1487   25.0446 C   0  0  0  0  0  0  0  0  0  0  0  0
  1  2  1  0
  2  3  1  0
  2  4  1  0
  4  5  1  0
  5  6  1  0
  6  7  2  0
  7  8  1  0
  8  9  1  0
  9 10  1  0
 10 11  1  0
 11 12  2  0
 11 13  2  0
 11 14  1  0
 14 15  2  0
 15 16  1  1
 15 17  2  0
 15 18  1  0
 18 19  1  0
 19 20  1  0
 20 21  1  0
 21 22  1  0
 22 23  1  0
  8  4  2  0
 23 18  1  0
M  END
>  <ref_pdb>  (552) 
A4526a

>  <subsites>  (552) 
1 - Active Site

>  <HIPPO Compound ID>  (552) 
3807

>  <energy_score>  (552) 
-240.440893

>  <fragmenstein_mode>  (552) 
expansion

>  <scratch_subdir>  (552) 
/opt/xchem-fragalysis-2/maxwin/BulkDock/SCRATCH/511180/C7479-P391

>  <smiles>  (552) 
CC(C)c1ocnc1CNS(=O)(=O)N=[S@](C)(=O)C1CCCCC1

>  <alias>  (552) 
C7479-P391

>  <ref_mols>  (552) 
A3623a,A4526a

>  <inspiration_score>  (552) 
None

>  <tags>  (552) 
BulkDock Fragalysis export,fragmenstein_placed,openbind_a71ev2a_c1_knitwork_impure,openbind_a71ev2a_c1_scaffolds

>  <fragmenstein_outcome>  (552) 
acceptable

>  <fragmenstein_error>  (552) 


>  <distance_score>  (552) 
0.818396

>  <inchikey>  (552) 
ULRPMLDUMSAKFM-UHFFFAOYSA-N

>  <name>  (552) 
C7479-P391

>  <HIPPO Pose ID>  (552) 
360702

>  <Energy>  (552) 
-243.99516

>  <exports>  (552) 
['/opt/xchem-fragalysis-2/maxwin/BulkDock/OUTPUTS/openbind_a71ev2a_c1_knitwork_impure_165VXJF.sdf', '/opt/xchem-fragalysis-2/maxwin/BulkDock/OUTPUTS/openbind_a71ev2a_c1_knitwork_impure_1B07QS4.sdf', '/opt/xchem-fragalysis-2/maxwin/BulkDock/OUTPUTS/openbind_a71ev2a_c1_knitwork_impure_1B07X5R.sdf', '/opt/xchem-fragalysis-2/maxwin/openbind-hippo/a71ev2a/openbind_a71ev2a_c1_scaffold_products.sdf', '/opt/xchem-fragalysis-2/maxwin/openbind-hippo/a71ev2a/cycle_01/bulkdock/openbind_a71ev2a_c1_scaffold_products.sdf', '/opt/xchem-fragalysis-2/maxwin/openbind-hippo/a71ev2a/cycle_01/bulkdock/openbind_a71ev2a_c1_scaffolds.sdf']

>  <fragmenstein_runtime>  (552) 
4.18709

$$$$
C13610-P135
     RDKit          3D

 11 11  0  0  0  0  0  0  0  0999 V2000
   10.4219   14.8067   23.1064 C   0  0  0  0  0  0  0  0  0  0  0  0
   11.6764   14.1826   22.5451 C   0  0  2  0  0  0  0  0  0  0  0  0
   11.5907   13.9572   21.0564 C   0  0  0  0  0  0  0  0  0  0  0  0
   12.4481   14.3192   20.2552 O   0  0  0  0  0  0  0  0  0  0  0  0
   12.1137   12.6464   23.4179 S   0  0  0  0  0  0  0  0  0  0  0  0
   10.5769   11.8201   23.7537 C   0  0  0  0  0  0  0  0  0  0  0  0
   10.2711   10.6387   23.0893 C   0  0  0  0  0  0  0  0  0  0  0  0
    9.2025    9.8851   23.5272 C   0  0  0  0  0  0  0  0  0  0  0  0
    8.3947   10.2614   24.5408 N   0  0  0  0  0  0  0  0  0  0  0  0
    8.6876   11.4217   25.1542 C   0  0  0  0  0  0  0  0  0  0  0  0
    9.7722   12.2087   24.8213 C   0  0  0  0  0  0  0  0  0  0  0  0
  2  1  1  1
  2  3  1  0
  3  4  2  0
  2  5  1  0
  5  6  1  0
  6  7  2  0
  7  8  1  0
  8  9  2  0
  9 10  1  0
 10 11  2  0
 11  6  1  0
M  END
>  <ref_pdb>  (553) 
A2629a

>  <subsites>  (553) 
1 - Active Site

>  <HIPPO Compound ID>  (553) 
1823

>  <energy_score>  (553) 
-8.354552

>  <fragmenstein_mode>  (553) 
expansion

>  <scratch_subdir>  (553) 
/opt/xchem-fragalysis-2/maxwin/BulkDock/SCRATCH/511180/C13610-P135

>  <smiles>  (553) 
C[C@H](C=O)Sc1ccncc1

>  <alias>  (553) 
C13610-P135

>  <ref_mols>  (553) 
A1778a,A2629a

>  <inspiration_score>  (553) 
None

>  <tags>  (553) 
BulkDock Fragalysis export,fragmenstein_placed,openbind_a71ev2a_c1_knitwork_impure,openbind_a71ev2a_c1_scaffolds

>  <fragmenstein_outcome>  (553) 
acceptable

>  <fragmenstein_error>  (553) 


>  <distance_score>  (553) 
0.961255

>  <inchikey>  (553) 
WERCHVXXXMTJME-UHFFFAOYSA-N

>  <name>  (553) 
C13610-P135

>  <HIPPO Pose ID>  (553) 
360941

>  <Energy>  (553) 
29.553294

>  <exports>  (553) 
['/opt/xchem-fragalysis-2/maxwin/BulkDock/OUTPUTS/openbind_a71ev2a_c1_knitwork_impure_165VXJF.sdf', '/opt/xchem-fragalysis-2/maxwin/BulkDock/OUTPUTS/openbind_a71ev2a_c1_knitwork_impure_1B07QS4.sdf', '/opt/xchem-fragalysis-2/maxwin/BulkDock/OUTPUTS/openbind_a71ev2a_c1_knitwork_impure_1B07X5R.sdf', '/opt/xchem-fragalysis-2/maxwin/openbind-hippo/a71ev2a/openbind_a71ev2a_c1_scaffold_products.sdf', '/opt/xchem-fragalysis-2/maxwin/openbind-hippo/a71ev2a/cycle_01/bulkdock/openbind_a71ev2a_c1_scaffold_products.sdf', '/opt/xchem-fragalysis-2/maxwin/openbind-hippo/a71ev2a/cycle_01/bulkdock/openbind_a71ev2a_c1_scaffolds.sdf']

>  <fragmenstein_runtime>  (553) 
1.219142

$$$$
C1316-P291
     RDKit          3D

 16 17  0  0  0  0  0  0  0  0999 V2000
    8.1652   13.6171   25.9553 O   0  0  0  0  0  0  0  0  0  0  0  0
    8.2230   12.7798   25.1455 C   0  0  0  0  0  0  0  0  0  0  0  0
    8.9410   12.9812   23.8145 C   0  0  0  0  0  0  0  0  0  0  0  0
    8.7423   14.4065   23.2878 C   0  0  0  0  0  0  0  0  0  0  0  0
    7.2883   14.8838   23.3466 C   0  0  2  0  0  0  0  0  0  0  0  0
    6.2950   13.9554   22.6792 C   0  0  0  0  0  0  0  0  0  0  0  0
    5.1014   14.8299   22.3617 C   0  0  0  0  0  0  0  0  0  0  0  0
    5.5336   16.2092   22.5852 N   0  0  0  0  0  0  0  0  0  0  0  0
    7.0072   16.1989   22.6431 C   0  0  0  0  0  0  0  0  0  0  0  0
    7.6252   11.3570   25.1333 N   0  0  0  0  0  0  0  0  0  0  0  0
    6.7814   10.7227   26.0412 O   0  0  0  0  0  0  0  0  0  0  0  0
    6.2165   11.6038   27.0074 C   0  0  0  0  0  0  0  0  0  0  0  0
    5.2070   12.6100   26.4667 C   0  0  0  0  0  0  0  0  0  0  0  0
    4.1699   12.7998   27.5740 C   0  0  0  0  0  0  0  0  0  0  0  0
    4.5176   11.7997   28.6700 C   0  0  0  0  0  0  0  0  0  0  0  0
    5.3861   10.7679   27.9793 C   0  0  0  0  0  0  0  0  0  0  0  0
  1  2  2  0
  2  3  1  0
  3  4  1  0
  5  4  1  6
  5  6  1  0
  6  7  1  0
  7  8  1  0
  8  9  1  0
  2 10  1  0
 10 11  1  0
 11 12  1  0
 12 13  1  0
 13 14  1  0
 14 15  1  0
 15 16  1  0
  9  5  1  0
 16 12  1  0
M  END
>  <ref_pdb>  (554) 
A4308a

>  <subsites>  (554) 
1 - Active Site

>  <HIPPO Compound ID>  (554) 
1169

>  <energy_score>  (554) 
-18.490255

>  <fragmenstein_mode>  (554) 
expansion

>  <scratch_subdir>  (554) 
/opt/xchem-fragalysis-2/maxwin/BulkDock/SCRATCH/511180/C1316-P291

>  <smiles>  (554) 
O=C(CC[C@@H]1CCNC1)NOC1CCCC1

>  <alias>  (554) 
C1316-P291

>  <ref_mols>  (554) 
A1080a,A4308a

>  <inspiration_score>  (554) 
None

>  <tags>  (554) 
BulkDock Fragalysis export,fragmenstein_placed,openbind_a71ev2a_c1_knitwork_impure,openbind_a71ev2a_c1_scaffolds

>  <fragmenstein_outcome>  (554) 
acceptable

>  <fragmenstein_error>  (554) 


>  <distance_score>  (554) 
0.974015

>  <inchikey>  (554) 
CGHAWODWSBOPHV-UHFFFAOYSA-N

>  <name>  (554) 
C1316-P291

>  <HIPPO Pose ID>  (554) 
361224

>  <Energy>  (554) 
58.448012

>  <exports>  (554) 
['/opt/xchem-fragalysis-2/maxwin/BulkDock/OUTPUTS/openbind_a71ev2a_c1_knitwork_impure_165VXJF.sdf', '/opt/xchem-fragalysis-2/maxwin/BulkDock/OUTPUTS/openbind_a71ev2a_c1_knitwork_impure_1B07QS4.sdf', '/opt/xchem-fragalysis-2/maxwin/BulkDock/OUTPUTS/openbind_a71ev2a_c1_knitwork_impure_1B07X5R.sdf', '/opt/xchem-fragalysis-2/maxwin/openbind-hippo/a71ev2a/openbind_a71ev2a_c1_scaffold_products.sdf', '/opt/xchem-fragalysis-2/maxwin/openbind-hippo/a71ev2a/cycle_01/bulkdock/openbind_a71ev2a_c1_scaffold_products.sdf', '/opt/xchem-fragalysis-2/maxwin/openbind-hippo/a71ev2a/cycle_01/bulkdock/openbind_a71ev2a_c1_scaffolds.sdf']

>  <fragmenstein_runtime>  (554) 
2.530177

$$$$
C40870-P182
     RDKit          3D

 18 18  0  0  0  0  0  0  0  0999 V2000
   12.4966   14.6111   22.7866 C   0  0  0  0  0  0  0  0  0  0  0  0
   11.2781   13.8565   23.2407 C   0  0  0  0  0  0  0  0  0  0  0  0
   10.2538   13.7581   22.1307 C   0  0  0  0  0  0  0  0  0  0  0  0
    9.3525   14.9198   22.0814 N   0  0  0  0  0  0  0  0  0  0  0  0
    9.7584   16.0478   21.1780 C   0  0  0  0  0  0  0  0  0  0  0  0
    9.7695   15.7443   19.6961 C   0  0  0  0  0  0  0  0  0  0  0  0
   11.0560   15.1123   19.1980 C   0  0  0  0  0  0  0  0  0  0  0  0
    7.7122   14.6267   22.2862 S   0  0  0  0  0  0  0  0  0  0  0  0
    7.3659   13.2553   22.0110 O   0  0  0  0  0  0  0  0  0  0  0  0
    6.9860   15.6727   21.6269 O   0  0  0  0  0  0  0  0  0  0  0  0
    7.4062   14.8962   23.8985 N   0  0  0  0  0  0  0  0  0  0  0  0
    8.0354   14.1693   25.0023 C   0  0  1  0  0  0  0  0  0  0  0  0
    7.3768   14.6552   26.3003 C   0  0  0  0  0  0  0  0  0  0  0  0
    8.0105   12.6826   24.8800 C   0  0  0  0  0  0  0  0  0  0  0  0
    7.0505   11.7668   25.2451 C   0  0  0  0  0  0  0  0  0  0  0  0
    7.5008   10.5189   24.9345 O   0  0  0  0  0  0  0  0  0  0  0  0
    8.7173   10.7430   24.3686 C   0  0  0  0  0  0  0  0  0  0  0  0
    9.1044   11.9983   24.3908 N   0  0  0  0  0  0  0  0  0  0  0  0
  1  2  1  0
  2  3  1  0
  3  4  1  0
  4  5  1  0
  5  6  1  0
  6  7  1  0
  4  8  1  0
  8  9  2  0
  8 10  2  0
  8 11  1  0
 11 12  1  0
 12 13  1  1
 12 14  1  0
 14 15  2  0
 15 16  1  0
 16 17  1  0
 17 18  2  0
 18 14  1  0
M  END
>  <ref_pdb>  (555) 
A3435a

>  <subsites>  (555) 
1 - Active Site

>  <HIPPO Compound ID>  (555) 
1803

>  <energy_score>  (555) 
-43.614758

>  <fragmenstein_mode>  (555) 
expansion

>  <scratch_subdir>  (555) 
/opt/xchem-fragalysis-2/maxwin/BulkDock/SCRATCH/511180/C40870-P182

>  <smiles>  (555) 
CCCN(CCC)S(=O)(=O)N[C@@H](C)c1cocn1

>  <alias>  (555) 
C40870-P182

>  <ref_mols>  (555) 
A0719a,A3435a

>  <inspiration_score>  (555) 
None

>  <tags>  (555) 
BulkDock Fragalysis export,fragmenstein_placed,openbind_a71ev2a_c1_knitwork_impure,openbind_a71ev2a_c1_scaffolds

>  <fragmenstein_outcome>  (555) 
acceptable

>  <fragmenstein_error>  (555) 


>  <distance_score>  (555) 
0.963855

>  <inchikey>  (555) 
JTKBNXRWTLWVNM-UHFFFAOYSA-N

>  <name>  (555) 
C40870-P182

>  <HIPPO Pose ID>  (555) 
361304

>  <Energy>  (555) 
-163.498765

>  <exports>  (555) 
['/opt/xchem-fragalysis-2/maxwin/BulkDock/OUTPUTS/openbind_a71ev2a_c1_knitwork_impure_165VXJF.sdf', '/opt/xchem-fragalysis-2/maxwin/BulkDock/OUTPUTS/openbind_a71ev2a_c1_knitwork_impure_1B07QS4.sdf', '/opt/xchem-fragalysis-2/maxwin/BulkDock/OUTPUTS/openbind_a71ev2a_c1_knitwork_impure_1B07X5R.sdf', '/opt/xchem-fragalysis-2/maxwin/openbind-hippo/a71ev2a/openbind_a71ev2a_c1_scaffold_products.sdf', '/opt/xchem-fragalysis-2/maxwin/openbind-hippo/a71ev2a/cycle_01/bulkdock/openbind_a71ev2a_c1_scaffold_products.sdf', '/opt/xchem-fragalysis-2/maxwin/openbind-hippo/a71ev2a/cycle_01/bulkdock/openbind_a71ev2a_c1_scaffolds.sdf']

>  <fragmenstein_runtime>  (555) 
9.271482

$$$$
C727-P440
     RDKit          3D

 12 13  0  0  0  0  0  0  0  0999 V2000
    7.0402   11.7577   25.2691 C   0  0  0  0  0  0  0  0  0  0  0  0
    7.6315   12.7331   24.4734 C   0  0  0  0  0  0  0  0  0  0  0  0
    8.8228   12.4382   23.8210 C   0  0  0  0  0  0  0  0  0  0  0  0
    9.5287   13.3568   23.0388 N   0  0  0  0  0  0  0  0  0  0  0  0
   10.7244   13.8787   23.7157 C   0  0  0  0  0  0  0  0  0  0  0  0
   11.6857   14.4388   22.6749 C   0  0  0  0  0  0  0  0  0  0  0  0
   11.0178   15.4962   21.8092 C   0  0  0  0  0  0  0  0  0  0  0  0
    9.7301   14.9534   21.1975 C   0  0  0  0  0  0  0  0  0  0  0  0
    8.7975   14.3697   22.2646 C   0  0  0  0  0  0  0  0  0  0  0  0
    9.3383   11.1470   23.9880 C   0  0  0  0  0  0  0  0  0  0  0  0
    8.6819   10.2375   24.8040 C   0  0  0  0  0  0  0  0  0  0  0  0
    7.5420   10.5174   25.4656 N   0  0  0  0  0  0  0  0  0  0  0  0
  1  2  2  0
  2  3  1  0
  3  4  1  0
  4  5  1  0
  5  6  1  0
  6  7  1  0
  7  8  1  0
  8  9  1  0
  3 10  2  0
 10 11  1  0
 11 12  2  0
 12  1  1  0
  9  4  1  0
M  END
>  <ref_pdb>  (556) 
A4707a

>  <subsites>  (556) 
1 - Active Site

>  <HIPPO Compound ID>  (556) 
21091

>  <energy_score>  (556) 
-17.06012

>  <fragmenstein_mode>  (556) 
expansion

>  <scratch_subdir>  (556) 
/opt/xchem-fragalysis-2/maxwin/BulkDock/SCRATCH/511180/C727-P440

>  <smiles>  (556) 
c1cc(N2CCCCC2)ccn1

>  <alias>  (556) 
C727-P440

>  <ref_mols>  (556) 
A4707a,A3623a

>  <inspiration_score>  (556) 
None

>  <tags>  (556) 
BulkDock Fragalysis export,fragmenstein_placed,openbind_a71ev2a_c1_knitwork_impure,openbind_a71ev2a_c1_scaffolds

>  <fragmenstein_outcome>  (556) 
acceptable

>  <fragmenstein_error>  (556) 


>  <distance_score>  (556) 
0.948656

>  <inchikey>  (556) 
UPVSFXPIZJMBGP-UHFFFAOYSA-N

>  <name>  (556) 
C727-P440

>  <HIPPO Pose ID>  (556) 
361728

>  <Energy>  (556) 
13.303738

>  <exports>  (556) 
['/opt/xchem-fragalysis-2/maxwin/BulkDock/OUTPUTS/openbind_a71ev2a_c1_knitwork_impure_165VXJF.sdf', '/opt/xchem-fragalysis-2/maxwin/BulkDock/OUTPUTS/openbind_a71ev2a_c1_knitwork_impure_1B07QS4.sdf', '/opt/xchem-fragalysis-2/maxwin/BulkDock/OUTPUTS/openbind_a71ev2a_c1_knitwork_impure_1B07X5R.sdf', '/opt/xchem-fragalysis-2/maxwin/openbind-hippo/a71ev2a/openbind_a71ev2a_c1_scaffold_products.sdf', '/opt/xchem-fragalysis-2/maxwin/openbind-hippo/a71ev2a/cycle_01/bulkdock/openbind_a71ev2a_c1_scaffold_products.sdf', '/opt/xchem-fragalysis-2/maxwin/openbind-hippo/a71ev2a/cycle_01/bulkdock/openbind_a71ev2a_c1_scaffolds.sdf']

>  <fragmenstein_runtime>  (556) 
3.641164

$$$$
C7135-P444
     RDKit          3D

 22 23  0  0  0  0  0  0  0  0999 V2000
    3.8849   12.1391   29.9308 C   0  0  0  0  0  0  0  0  0  0  0  0
    3.3514   10.9532   29.1222 C   0  0  2  0  0  0  0  0  0  0  0  0
    3.5797   11.2119   27.6142 C   0  0  0  0  0  0  0  0  0  0  0  0
    5.0131   10.8625   27.1923 C   0  0  0  0  0  0  0  0  0  0  0  0
    5.6042    9.9917   27.7017 O   0  0  0  0  0  0  0  0  0  0  0  0
    5.3979   11.7749   25.9866 N   0  0  0  0  0  0  0  0  0  0  0  0
    6.5852   11.8569   25.2543 C   0  0  0  0  0  0  0  0  0  0  0  0
    7.4089   10.7494   25.1279 C   0  0  0  0  0  0  0  0  0  0  0  0
    8.5619   10.8895   24.3776 C   0  0  0  0  0  0  0  0  0  0  0  0
    8.9600   12.0525   23.8079 N   0  0  0  0  0  0  0  0  0  0  0  0
    8.1765   13.1343   23.9566 C   0  0  0  0  0  0  0  0  0  0  0  0
    8.6150   14.4023   23.5331 N   0  0  0  0  0  0  0  0  0  0  0  0
    9.6867   14.9188   24.4111 C   0  0  0  0  0  0  0  0  0  0  0  0
   11.1140   14.5422   23.9587 C   0  0  0  0  0  0  0  0  0  0  0  0
   11.3959   14.8956   22.5612 N   0  0  0  0  0  0  0  0  0  0  0  0
   10.4001   14.1898   21.7277 C   0  0  0  0  0  0  0  0  0  0  0  0
    8.9349   14.5296   22.0907 C   0  0  0  0  0  0  0  0  0  0  0  0
    6.9572   13.0524   24.6415 C   0  0  0  0  0  0  0  0  0  0  0  0
    1.8800   10.7242   29.4340 C   0  0  0  0  0  0  0  0  0  0  0  0
    1.6719   10.6026   30.7652 F   0  0  0  0  0  0  0  0  0  0  0  0
    1.4076    9.6067   28.8488 F   0  0  0  0  0  0  0  0  0  0  0  0
    1.1227   11.7591   29.0011 F   0  0  0  0  0  0  0  0  0  0  0  0
  2  1  1  1
  2  3  1  0
  3  4  1  0
  4  5  2  0
  4  6  1  0
  6  7  1  0
  7  8  2  0
  8  9  1  0
  9 10  2  0
 10 11  1  0
 11 12  1  0
 12 13  1  0
 13 14  1  0
 14 15  1  0
 15 16  1  0
 16 17  1  0
 11 18  2  0
  2 19  1  0
 19 20  1  0
 19 21  1  0
 19 22  1  0
 18  7  1  0
 17 12  1  0
M  END
>  <ref_pdb>  (557) 
A4712a

>  <subsites>  (557) 
1 - Active Site

>  <HIPPO Compound ID>  (557) 
8920

>  <energy_score>  (557) 
-35.661837

>  <fragmenstein_mode>  (557) 
expansion

>  <scratch_subdir>  (557) 
/opt/xchem-fragalysis-2/maxwin/BulkDock/SCRATCH/511180/C7135-P444

>  <smiles>  (557) 
C[C@H](CC(=O)Nc1ccnc(N2CCNCC2)c1)C(F)(F)F

>  <alias>  (557) 
C7135-P444

>  <ref_mols>  (557) 
A1445a,A4712a

>  <inspiration_score>  (557) 
None

>  <tags>  (557) 
BulkDock Fragalysis export,fragmenstein_placed,openbind_a71ev2a_c1_knitwork_impure,openbind_a71ev2a_c1_scaffolds

>  <fragmenstein_outcome>  (557) 
acceptable

>  <fragmenstein_error>  (557) 


>  <distance_score>  (557) 
0.981657

>  <inchikey>  (557) 
GXLWWRPCSDKINQ-UHFFFAOYSA-N

>  <name>  (557) 
C7135-P444

>  <HIPPO Pose ID>  (557) 
361889

>  <Energy>  (557) 
46.980015

>  <exports>  (557) 
['/opt/xchem-fragalysis-2/maxwin/BulkDock/OUTPUTS/openbind_a71ev2a_c1_knitwork_impure_165VXJF.sdf', '/opt/xchem-fragalysis-2/maxwin/BulkDock/OUTPUTS/openbind_a71ev2a_c1_knitwork_impure_1B07QS4.sdf', '/opt/xchem-fragalysis-2/maxwin/BulkDock/OUTPUTS/openbind_a71ev2a_c1_knitwork_impure_1B07X5R.sdf', '/opt/xchem-fragalysis-2/maxwin/openbind-hippo/a71ev2a/openbind_a71ev2a_c1_scaffold_products.sdf', '/opt/xchem-fragalysis-2/maxwin/openbind-hippo/a71ev2a/cycle_01/bulkdock/openbind_a71ev2a_c1_scaffold_products.sdf', '/opt/xchem-fragalysis-2/maxwin/openbind-hippo/a71ev2a/cycle_01/bulkdock/openbind_a71ev2a_c1_scaffolds.sdf']

>  <fragmenstein_runtime>  (557) 
10.320109

$$$$
C18929-P134
     RDKit          3D

 14 15  0  0  0  0  0  0  0  0999 V2000
    6.9230   11.5838   26.0340 C   0  0  0  0  0  0  0  0  0  0  0  0
    8.1262   10.9344   25.4050 C   0  0  0  0  0  0  0  0  0  0  0  0
    8.3747    9.7386   25.5346 O   0  0  0  0  0  0  0  0  0  0  0  0
    9.1294   11.7988   24.7481 C   0  0  0  0  0  0  0  0  0  0  0  0
    8.7852   12.9241   23.9855 C   0  0  0  0  0  0  0  0  0  0  0  0
    9.7851   13.7495   23.4293 C   0  0  0  0  0  0  0  0  0  0  0  0
   11.1390   13.4947   23.6607 C   0  0  0  0  0  0  0  0  0  0  0  0
   11.4465   12.3983   24.4382 C   0  0  0  0  0  0  0  0  0  0  0  0
   10.4757   11.5316   24.9322 C   0  0  0  0  0  0  0  0  0  0  0  0
   11.0613   10.4339   25.5714 N   0  0  0  0  0  0  0  0  0  0  0  0
   12.4313   10.5037   25.5302 C   0  0  0  0  0  0  0  0  0  0  0  0
   13.2579    9.6884   25.8795 O   0  0  0  0  0  0  0  0  0  0  0  0
   12.7443   11.8447   24.8328 C   0  0  0  0  0  0  0  0  0  0  0  0
   13.8511   12.2521   24.5721 O   0  0  0  0  0  0  0  0  0  0  0  0
  1  2  1  0
  2  3  2  0
  2  4  1  0
  4  5  2  0
  5  6  1  0
  6  7  2  0
  7  8  1  0
  8  9  2  0
  9 10  1  0
 10 11  1  0
 11 12  2  0
 11 13  1  0
 13 14  2  0
  9  4  1  0
 13  8  1  0
M  END
>  <ref_pdb>  (558) 
A2513a

>  <subsites>  (558) 
1 - Active Site

>  <HIPPO Compound ID>  (558) 
4746

>  <energy_score>  (558) 
-12.668235

>  <fragmenstein_mode>  (558) 
expansion

>  <scratch_subdir>  (558) 
/opt/xchem-fragalysis-2/maxwin/BulkDock/SCRATCH/511180/C18929-P134

>  <smiles>  (558) 
CC(=O)c1cccc2c1NC(=O)C2=O

>  <alias>  (558) 
C18929-P134

>  <ref_mols>  (558) 
A1775a,A2513a

>  <inspiration_score>  (558) 
None

>  <tags>  (558) 
BulkDock Fragalysis export,fragmenstein_placed,openbind_a71ev2a_c1_knitwork_impure,openbind_a71ev2a_c1_scaffolds

>  <fragmenstein_outcome>  (558) 
acceptable

>  <fragmenstein_error>  (558) 


>  <distance_score>  (558) 
0.811671

>  <inchikey>  (558) 
MHSGZEFYVKSBLF-UHFFFAOYSA-N

>  <name>  (558) 
C18929-P134

>  <HIPPO Pose ID>  (558) 
362822

>  <Energy>  (558) 
77.545992

>  <exports>  (558) 
['/opt/xchem-fragalysis-2/maxwin/BulkDock/OUTPUTS/openbind_a71ev2a_c1_knitwork_impure_165VXJF.sdf', '/opt/xchem-fragalysis-2/maxwin/BulkDock/OUTPUTS/openbind_a71ev2a_c1_knitwork_impure_1B07QS4.sdf', '/opt/xchem-fragalysis-2/maxwin/BulkDock/OUTPUTS/openbind_a71ev2a_c1_knitwork_impure_1B07X5R.sdf', '/opt/xchem-fragalysis-2/maxwin/openbind-hippo/a71ev2a/openbind_a71ev2a_c1_scaffold_products.sdf', '/opt/xchem-fragalysis-2/maxwin/openbind-hippo/a71ev2a/cycle_01/bulkdock/openbind_a71ev2a_c1_scaffold_products.sdf', '/opt/xchem-fragalysis-2/maxwin/openbind-hippo/a71ev2a/cycle_01/bulkdock/openbind_a71ev2a_c1_scaffolds.sdf']

>  <fragmenstein_runtime>  (558) 
0.559313

$$$$
C18936-P134
     RDKit          3D

 15 16  0  0  0  0  0  0  0  0999 V2000
    5.2640   12.2091   27.6418 C   0  0  0  0  0  0  0  0  0  0  0  0
    6.1948   11.3530   26.9927 O   0  0  0  0  0  0  0  0  0  0  0  0
    7.1035   12.0922   26.1804 C   0  0  0  0  0  0  0  0  0  0  0  0
    8.0264   11.1249   25.4275 C   0  0  0  0  0  0  0  0  0  0  0  0
    9.1395   11.8672   24.7356 C   0  0  0  0  0  0  0  0  0  0  0  0
    8.8571   12.9496   23.8754 C   0  0  0  0  0  0  0  0  0  0  0  0
    9.8780   13.7299   23.2959 C   0  0  0  0  0  0  0  0  0  0  0  0
   11.2163   13.4686   23.5736 C   0  0  0  0  0  0  0  0  0  0  0  0
   11.4769   12.4053   24.4097 C   0  0  0  0  0  0  0  0  0  0  0  0
   10.4781   11.5817   24.9369 C   0  0  0  0  0  0  0  0  0  0  0  0
   11.0369   10.4910   25.6069 N   0  0  0  0  0  0  0  0  0  0  0  0
   12.4109   10.5249   25.5476 C   0  0  0  0  0  0  0  0  0  0  0  0
   13.2159    9.6875   25.8974 O   0  0  0  0  0  0  0  0  0  0  0  0
   12.7591   11.8403   24.8295 C   0  0  0  0  0  0  0  0  0  0  0  0
   13.8782   12.2178   24.5749 O   0  0  0  0  0  0  0  0  0  0  0  0
  1  2  1  0
  2  3  1  0
  3  4  1  0
  4  5  1  0
  5  6  2  0
  6  7  1  0
  7  8  2  0
  8  9  1  0
  9 10  2  0
 10 11  1  0
 11 12  1  0
 12 13  2  0
 12 14  1  0
 14 15  2  0
 10  5  1  0
 14  9  1  0
M  END
>  <ref_pdb>  (559) 
A2513a

>  <subsites>  (559) 
1 - Active Site

>  <HIPPO Compound ID>  (559) 
20105

>  <energy_score>  (559) 
-20.14423

>  <fragmenstein_mode>  (559) 
expansion

>  <scratch_subdir>  (559) 
/opt/xchem-fragalysis-2/maxwin/BulkDock/SCRATCH/511180/C18936-P134

>  <smiles>  (559) 
COCCc1cccc2c1NC(=O)C2=O

>  <alias>  (559) 
C18936-P134

>  <ref_mols>  (559) 
A1775a,A2513a

>  <inspiration_score>  (559) 
None

>  <tags>  (559) 
BulkDock Fragalysis export,fragmenstein_placed,openbind_a71ev2a_c1_knitwork_impure,openbind_a71ev2a_c1_scaffolds

>  <fragmenstein_outcome>  (559) 
acceptable

>  <fragmenstein_error>  (559) 


>  <distance_score>  (559) 
0.807336

>  <inchikey>  (559) 
ZUCKYOCXPYNNQW-UHFFFAOYSA-N

>  <name>  (559) 
C18936-P134

>  <HIPPO Pose ID>  (559) 
362832

>  <Energy>  (559) 
76.535848

>  <exports>  (559) 
['/opt/xchem-fragalysis-2/maxwin/BulkDock/OUTPUTS/openbind_a71ev2a_c1_knitwork_impure_165VXJF.sdf', '/opt/xchem-fragalysis-2/maxwin/BulkDock/OUTPUTS/openbind_a71ev2a_c1_knitwork_impure_1B07QS4.sdf', '/opt/xchem-fragalysis-2/maxwin/BulkDock/OUTPUTS/openbind_a71ev2a_c1_knitwork_impure_1B07X5R.sdf', '/opt/xchem-fragalysis-2/maxwin/openbind-hippo/a71ev2a/openbind_a71ev2a_c1_scaffold_products.sdf', '/opt/xchem-fragalysis-2/maxwin/openbind-hippo/a71ev2a/cycle_01/bulkdock/openbind_a71ev2a_c1_scaffold_products.sdf', '/opt/xchem-fragalysis-2/maxwin/openbind-hippo/a71ev2a/cycle_01/bulkdock/openbind_a71ev2a_c1_scaffolds.sdf']

>  <fragmenstein_runtime>  (559) 
0.778044

$$$$
C18941-P134
     RDKit          3D

 14 15  0  0  0  0  0  0  0  0999 V2000
    6.3296   12.0420   26.5685 C   0  0  0  0  0  0  0  0  0  0  0  0
    7.6562   11.5279   26.5943 O   0  0  0  0  0  0  0  0  0  0  0  0
    8.0256   10.9061   25.3649 C   0  0  0  0  0  0  0  0  0  0  0  0
    9.1069   11.7347   24.7390 C   0  0  0  0  0  0  0  0  0  0  0  0
    8.7757   12.8701   23.9715 C   0  0  0  0  0  0  0  0  0  0  0  0
    9.7648   13.7107   23.4215 C   0  0  0  0  0  0  0  0  0  0  0  0
   11.1158   13.4697   23.6603 C   0  0  0  0  0  0  0  0  0  0  0  0
   11.4214   12.3782   24.4440 C   0  0  0  0  0  0  0  0  0  0  0  0
   10.4552   11.4981   24.9393 C   0  0  0  0  0  0  0  0  0  0  0  0
   11.0554   10.4112   25.5790 N   0  0  0  0  0  0  0  0  0  0  0  0
   12.4261   10.5062   25.5399 C   0  0  0  0  0  0  0  0  0  0  0  0
   13.2577    9.6979   25.8956 O   0  0  0  0  0  0  0  0  0  0  0  0
   12.7258   11.8437   24.8385 C   0  0  0  0  0  0  0  0  0  0  0  0
   13.8306   12.2532   24.5710 O   0  0  0  0  0  0  0  0  0  0  0  0
  1  2  1  0
  2  3  1  0
  3  4  1  0
  4  5  2  0
  5  6  1  0
  6  7  2  0
  7  8  1  0
  8  9  2  0
  9 10  1  0
 10 11  1  0
 11 12  2  0
 11 13  1  0
 13 14  2  0
  9  4  1  0
 13  8  1  0
M  END
>  <ref_pdb>  (560) 
A2513a

>  <subsites>  (560) 
1 - Active Site

>  <HIPPO Compound ID>  (560) 
18941

>  <energy_score>  (560) 
-14.902326

>  <fragmenstein_mode>  (560) 
expansion

>  <scratch_subdir>  (560) 
/opt/xchem-fragalysis-2/maxwin/BulkDock/SCRATCH/511180/C18941-P134

>  <smiles>  (560) 
COCc1cccc2c1NC(=O)C2=O

>  <alias>  (560) 
C18941-P134

>  <ref_mols>  (560) 
A1775a,A2513a

>  <inspiration_score>  (560) 
None

>  <tags>  (560) 
BulkDock Fragalysis export,fragmenstein_placed,openbind_a71ev2a_c1_knitwork_impure,openbind_a71ev2a_c1_scaffolds

>  <fragmenstein_outcome>  (560) 
acceptable

>  <fragmenstein_error>  (560) 


>  <distance_score>  (560) 
0.637537

>  <inchikey>  (560) 
GHTQJYVHMYLSOL-UHFFFAOYSA-N

>  <name>  (560) 
C18941-P134

>  <HIPPO Pose ID>  (560) 
362842

>  <Energy>  (560) 
70.53526

>  <exports>  (560) 
['/opt/xchem-fragalysis-2/maxwin/BulkDock/OUTPUTS/openbind_a71ev2a_c1_knitwork_impure_165VXJF.sdf', '/opt/xchem-fragalysis-2/maxwin/BulkDock/OUTPUTS/openbind_a71ev2a_c1_knitwork_impure_1B07QS4.sdf', '/opt/xchem-fragalysis-2/maxwin/BulkDock/OUTPUTS/openbind_a71ev2a_c1_knitwork_impure_1B07X5R.sdf', '/opt/xchem-fragalysis-2/maxwin/openbind-hippo/a71ev2a/openbind_a71ev2a_c1_scaffold_products.sdf', '/opt/xchem-fragalysis-2/maxwin/openbind-hippo/a71ev2a/cycle_01/bulkdock/openbind_a71ev2a_c1_scaffold_products.sdf', '/opt/xchem-fragalysis-2/maxwin/openbind-hippo/a71ev2a/cycle_01/bulkdock/openbind_a71ev2a_c1_scaffolds.sdf']

>  <fragmenstein_runtime>  (560) 
0.718864

$$$$
C8140-P439
     RDKit          3D

 16 16  0  0  0  0  0  0  0  0999 V2000
    6.4964   15.4368   24.6758 C   0  0  0  0  0  0  0  0  0  0  0  0
    6.4751   14.0179   25.2439 C   0  0  1  0  0  0  0  0  0  0  0  0
    7.7317   13.2829   24.9116 N   0  0  0  0  0  0  0  0  0  0  0  0
    8.2094   13.1448   23.3119 S   0  0  0  0  0  0  0  0  0  0  0  0
    7.0112   13.0560   22.5116 O   0  0  0  0  0  0  0  0  0  0  0  0
    9.1749   12.0735   23.3120 O   0  0  0  0  0  0  0  0  0  0  0  0
    8.9781   14.6033   23.1008 N   0  0  0  0  0  0  0  0  0  0  0  0
   10.3005   14.7640   23.7294 C   0  0  0  0  0  0  0  0  0  0  0  0
   11.4188   14.3795   22.7742 C   0  0  0  0  0  0  0  0  0  0  0  0
   11.3170   15.1600   21.4708 C   0  0  0  0  0  0  0  0  0  0  0  0
    9.9450   14.9604   20.8408 C   0  0  0  0  0  0  0  0  0  0  0  0
    8.8297   15.3160   21.8086 C   0  0  0  0  0  0  0  0  0  0  0  0
    6.2557   13.9709   26.8028 C   0  0  0  0  0  0  0  0  0  0  0  0
    6.0930   12.5074   27.2775 C   0  0  0  0  0  0  0  0  0  0  0  0
    4.9539   14.7069   27.1924 C   0  0  0  0  0  0  0  0  0  0  0  0
    7.4231   14.6226   27.5681 C   0  0  0  0  0  0  0  0  0  0  0  0
  2  1  1  1
  2  3  1  0
  3  4  1  0
  4  5  2  0
  4  6  2  0
  4  7  1  0
  7  8  1  0
  8  9  1  0
  9 10  1  0
 10 11  1  0
 11 12  1  0
  2 13  1  0
 13 14  1  0
 13 15  1  0
 13 16  1  0
 12  7  1  0
M  END
>  <ref_pdb>  (561) 
A4706a

>  <subsites>  (561) 
1 - Active Site

>  <HIPPO Compound ID>  (561) 
18492

>  <energy_score>  (561) 
-71.882004

>  <fragmenstein_mode>  (561) 
expansion

>  <scratch_subdir>  (561) 
/opt/xchem-fragalysis-2/maxwin/BulkDock/SCRATCH/511180/C8140-P439

>  <smiles>  (561) 
C[C@@H](NS(=O)(=O)N1CCCCC1)C(C)(C)C

>  <alias>  (561) 
C8140-P439

>  <ref_mols>  (561) 
A0719a,A4706a

>  <inspiration_score>  (561) 
None

>  <tags>  (561) 
BulkDock Fragalysis export,fragmenstein_placed,openbind_a71ev2a_c1_knitwork_impure,openbind_a71ev2a_c1_scaffolds

>  <fragmenstein_outcome>  (561) 
acceptable

>  <fragmenstein_error>  (561) 


>  <distance_score>  (561) 
0.944903

>  <inchikey>  (561) 
IWXAZUGAFBIABQ-UHFFFAOYSA-N

>  <name>  (561) 
C8140-P439

>  <HIPPO Pose ID>  (561) 
363286

>  <Energy>  (561) 
-163.318622

>  <exports>  (561) 
['/opt/xchem-fragalysis-2/maxwin/BulkDock/OUTPUTS/openbind_a71ev2a_c1_knitwork_impure_165VXJF.sdf', '/opt/xchem-fragalysis-2/maxwin/BulkDock/OUTPUTS/openbind_a71ev2a_c1_knitwork_impure_1B07QS4.sdf', '/opt/xchem-fragalysis-2/maxwin/BulkDock/OUTPUTS/openbind_a71ev2a_c1_knitwork_impure_1B07X5R.sdf', '/opt/xchem-fragalysis-2/maxwin/openbind-hippo/a71ev2a/openbind_a71ev2a_c1_scaffold_products.sdf', '/opt/xchem-fragalysis-2/maxwin/openbind-hippo/a71ev2a/cycle_01/bulkdock/openbind_a71ev2a_c1_scaffold_products.sdf', '/opt/xchem-fragalysis-2/maxwin/openbind-hippo/a71ev2a/cycle_01/bulkdock/openbind_a71ev2a_c1_scaffolds.sdf']

>  <fragmenstein_runtime>  (561) 
9.210256

$$$$
C8160-P439
     RDKit          3D

 14 14  0  0  0  0  0  0  0  0999 V2000
    7.6491   10.0785   25.5966 C   0  0  0  0  0  0  0  0  0  0  0  0
    8.1979   11.2152   24.7925 C   0  0  0  0  0  0  0  0  0  0  0  0
    9.7181   11.1821   24.8074 C   0  0  0  0  0  0  0  0  0  0  0  0
    7.5680   12.4652   25.3844 C   0  0  0  0  0  0  0  0  0  0  0  0
    8.1489   13.6639   24.8237 N   0  0  0  0  0  0  0  0  0  0  0  0
    7.6058   14.1719   23.3315 S   0  0  0  0  0  0  0  0  0  0  0  0
    6.8780   13.1209   22.6607 O   0  0  0  0  0  0  0  0  0  0  0  0
    7.0198   15.4551   23.6199 O   0  0  0  0  0  0  0  0  0  0  0  0
    9.0721   14.3821   22.5492 N   0  0  0  0  0  0  0  0  0  0  0  0
   10.2396   14.8094   23.3444 C   0  0  0  0  0  0  0  0  0  0  0  0
   11.4982   14.5689   22.5312 C   0  0  0  0  0  0  0  0  0  0  0  0
   11.4607   15.4126   21.2723 C   0  0  0  0  0  0  0  0  0  0  0  0
   10.2091   15.1123   20.4601 C   0  0  0  0  0  0  0  0  0  0  0  0
    8.9407   15.1895   21.3001 C   0  0  0  0  0  0  0  0  0  0  0  0
  1  2  1  0
  2  3  1  0
  2  4  1  0
  4  5  1  0
  5  6  1  0
  6  7  2  0
  6  8  2  0
  6  9  1  0
  9 10  1  0
 10 11  1  0
 11 12  1  0
 12 13  1  0
 13 14  1  0
 14  9  1  0
M  END
>  <ref_pdb>  (562) 
A4706a

>  <subsites>  (562) 
1 - Active Site

>  <HIPPO Compound ID>  (562) 
5654

>  <energy_score>  (562) 
-47.056266

>  <fragmenstein_mode>  (562) 
expansion

>  <scratch_subdir>  (562) 
/opt/xchem-fragalysis-2/maxwin/BulkDock/SCRATCH/511180/C8160-P439

>  <smiles>  (562) 
CC(C)CNS(=O)(=O)N1CCCCC1

>  <alias>  (562) 
C8160-P439

>  <ref_mols>  (562) 
A0719a,A4706a

>  <inspiration_score>  (562) 
None

>  <tags>  (562) 
BulkDock Fragalysis export,fragmenstein_placed,openbind_a71ev2a_c1_knitwork_impure,openbind_a71ev2a_c1_scaffolds

>  <fragmenstein_outcome>  (562) 
acceptable

>  <fragmenstein_error>  (562) 


>  <distance_score>  (562) 
0.842827

>  <inchikey>  (562) 
MIJXJNKYRJUUNZ-UHFFFAOYSA-N

>  <name>  (562) 
C8160-P439

>  <HIPPO Pose ID>  (562) 
363295

>  <Energy>  (562) 
-171.197575

>  <exports>  (562) 
['/opt/xchem-fragalysis-2/maxwin/BulkDock/OUTPUTS/openbind_a71ev2a_c1_knitwork_impure_165VXJF.sdf', '/opt/xchem-fragalysis-2/maxwin/BulkDock/OUTPUTS/openbind_a71ev2a_c1_knitwork_impure_1B07QS4.sdf', '/opt/xchem-fragalysis-2/maxwin/BulkDock/OUTPUTS/openbind_a71ev2a_c1_knitwork_impure_1B07X5R.sdf', '/opt/xchem-fragalysis-2/maxwin/openbind-hippo/a71ev2a/openbind_a71ev2a_c1_scaffold_products.sdf', '/opt/xchem-fragalysis-2/maxwin/openbind-hippo/a71ev2a/cycle_01/bulkdock/openbind_a71ev2a_c1_scaffold_products.sdf', '/opt/xchem-fragalysis-2/maxwin/openbind-hippo/a71ev2a/cycle_01/bulkdock/openbind_a71ev2a_c1_scaffolds.sdf']

>  <fragmenstein_runtime>  (562) 
3.393788

$$$$
C8169-P439
     RDKit          3D

 14 14  0  0  0  0  0  0  0  0999 V2000
    6.7210   13.1212   22.4319 O   0  0  0  0  0  0  0  0  0  0  0  0
    7.4882   13.9272   23.3527 S   0  0  0  0  0  0  0  0  0  0  0  0
    6.9970   15.1655   23.9007 O   0  0  0  0  0  0  0  0  0  0  0  0
    7.8684   12.9927   24.6978 N   0  0  0  0  0  0  0  0  0  0  0  0
    6.9182   11.9026   24.9708 C   0  0  0  0  0  0  0  0  0  0  0  0
    6.8751   11.5392   26.4450 C   0  0  0  0  0  0  0  0  0  0  0  0
    6.0433   12.5043   27.2833 C   0  0  0  0  0  0  0  0  0  0  0  0
    6.8165   14.0981   27.4229 Cl  0  0  0  0  0  0  0  0  0  0  0  0
    8.9953   14.1875   22.6726 N   0  0  0  0  0  0  0  0  0  0  0  0
   10.0997   14.5714   23.5709 C   0  0  0  0  0  0  0  0  0  0  0  0
   11.4128   14.4530   22.8085 C   0  0  0  0  0  0  0  0  0  0  0  0
   11.4212   15.3889   21.6088 C   0  0  0  0  0  0  0  0  0  0  0  0
   10.2272   15.1050   20.7086 C   0  0  0  0  0  0  0  0  0  0  0  0
    8.9181   15.1027   21.4864 C   0  0  0  0  0  0  0  0  0  0  0  0
  1  2  2  0
  2  3  2  0
  2  4  1  0
  4  5  1  0
  5  6  1  0
  6  7  1  0
  7  8  1  0
  2  9  1  0
  9 10  1  0
 10 11  1  0
 11 12  1  0
 12 13  1  0
 13 14  1  0
 14  9  1  0
M  END
>  <ref_pdb>  (563) 
A4706a

>  <subsites>  (563) 
1 - Active Site

>  <HIPPO Compound ID>  (563) 
22202

>  <energy_score>  (563) 
-66.788676

>  <fragmenstein_mode>  (563) 
expansion

>  <scratch_subdir>  (563) 
/opt/xchem-fragalysis-2/maxwin/BulkDock/SCRATCH/511180/C8169-P439

>  <smiles>  (563) 
O=S(=O)(NCCCCl)N1CCCCC1

>  <alias>  (563) 
C8169-P439

>  <ref_mols>  (563) 
A0719a,A4706a

>  <inspiration_score>  (563) 
None

>  <tags>  (563) 
BulkDock Fragalysis export,fragmenstein_placed,openbind_a71ev2a_c1_knitwork_impure,openbind_a71ev2a_c1_scaffolds

>  <fragmenstein_outcome>  (563) 
acceptable

>  <fragmenstein_error>  (563) 


>  <distance_score>  (563) 
0.546281

>  <inchikey>  (563) 
OBYODZPHMWOBDT-UHFFFAOYSA-N

>  <name>  (563) 
C8169-P439

>  <HIPPO Pose ID>  (563) 
363296

>  <Energy>  (563) 
-182.547805

>  <exports>  (563) 
['/opt/xchem-fragalysis-2/maxwin/BulkDock/OUTPUTS/openbind_a71ev2a_c1_knitwork_impure_165VXJF.sdf', '/opt/xchem-fragalysis-2/maxwin/BulkDock/OUTPUTS/openbind_a71ev2a_c1_knitwork_impure_1B07QS4.sdf', '/opt/xchem-fragalysis-2/maxwin/BulkDock/OUTPUTS/openbind_a71ev2a_c1_knitwork_impure_1B07X5R.sdf', '/opt/xchem-fragalysis-2/maxwin/openbind-hippo/a71ev2a/openbind_a71ev2a_c1_scaffold_products.sdf', '/opt/xchem-fragalysis-2/maxwin/openbind-hippo/a71ev2a/cycle_01/bulkdock/openbind_a71ev2a_c1_scaffold_products.sdf', '/opt/xchem-fragalysis-2/maxwin/openbind-hippo/a71ev2a/cycle_01/bulkdock/openbind_a71ev2a_c1_scaffolds.sdf']

>  <fragmenstein_runtime>  (563) 
1.907452

$$$$
C6268-P242
     RDKit          3D

 12 13  0  0  0  0  0  0  0  0999 V2000
   10.3123   15.2043   20.7622 C   0  0  0  0  0  0  0  0  0  0  0  0
   11.4442   15.1018   21.5561 C   0  0  0  0  0  0  0  0  0  0  0  0
   11.3252   14.5708   22.8336 C   0  0  0  0  0  0  0  0  0  0  0  0
   10.0743   14.1258   23.2740 C   0  0  0  0  0  0  0  0  0  0  0  0
    9.9562   13.3863   24.5894 C   0  0  1  0  0  0  0  0  0  0  0  0
    8.5035   13.1341   25.0909 C   0  0  0  0  0  0  0  0  0  0  0  0
    8.2945   11.8115   25.7254 N   0  0  0  0  0  0  0  0  0  0  0  0
    8.3318   10.7754   24.6980 C   0  0  0  0  0  0  0  0  0  0  0  0
    9.5916   10.7431   23.8309 C   0  0  0  0  0  0  0  0  0  0  0  0
   10.9158   11.8122   24.4819 S   0  0  0  0  0  0  0  0  0  0  0  0
    8.9638   14.2326   22.5117 N   0  0  0  0  0  0  0  0  0  0  0  0
    9.1061   14.7858   21.2903 C   0  0  0  0  0  0  0  0  0  0  0  0
  1  2  2  0
  2  3  1  0
  3  4  2  0
  5  4  1  6
  5  6  1  0
  6  7  1  0
  7  8  1  0
  8  9  1  0
  9 10  1  0
  4 11  1  0
 11 12  2  0
 12  1  1  0
 10  5  1  0
M  END
>  <ref_pdb>  (564) 
A3938a

>  <subsites>  (564) 
1 - Active Site

>  <HIPPO Compound ID>  (564) 
6268

>  <energy_score>  (564) 
-19.460199

>  <fragmenstein_mode>  (564) 
expansion

>  <scratch_subdir>  (564) 
/opt/xchem-fragalysis-2/maxwin/BulkDock/SCRATCH/511180/C6268-P242

>  <smiles>  (564) 
c1ccc([C@H]2CNCCS2)nc1

>  <alias>  (564) 
C6268-P242

>  <ref_mols>  (564) 
A3938a,A2629a

>  <inspiration_score>  (564) 
None

>  <tags>  (564) 
BulkDock Fragalysis export,fragmenstein_placed,openbind_a71ev2a_c1_knitwork_impure,openbind_a71ev2a_c1_scaffolds

>  <fragmenstein_outcome>  (564) 
acceptable

>  <fragmenstein_error>  (564) 


>  <distance_score>  (564) 
0.966357

>  <inchikey>  (564) 
YFEHDHGTUJUJKX-UHFFFAOYSA-N

>  <name>  (564) 
C6268-P242

>  <HIPPO Pose ID>  (564) 
363318

>  <Energy>  (564) 
96.496818

>  <exports>  (564) 
['/opt/xchem-fragalysis-2/maxwin/BulkDock/OUTPUTS/openbind_a71ev2a_c1_knitwork_impure_165VXJF.sdf', '/opt/xchem-fragalysis-2/maxwin/BulkDock/OUTPUTS/openbind_a71ev2a_c1_knitwork_impure_1B07QS4.sdf', '/opt/xchem-fragalysis-2/maxwin/BulkDock/OUTPUTS/openbind_a71ev2a_c1_knitwork_impure_1B07X5R.sdf', '/opt/xchem-fragalysis-2/maxwin/openbind-hippo/a71ev2a/openbind_a71ev2a_c1_scaffold_products.sdf', '/opt/xchem-fragalysis-2/maxwin/openbind-hippo/a71ev2a/cycle_01/bulkdock/openbind_a71ev2a_c1_scaffold_products.sdf', '/opt/xchem-fragalysis-2/maxwin/openbind-hippo/a71ev2a/cycle_01/bulkdock/openbind_a71ev2a_c1_scaffolds.sdf']

>  <fragmenstein_runtime>  (564) 
5.914231

$$$$
C1800-P198
     RDKit          3D

 16 18  0  0  0  0  0  0  0  0999 V2000
    8.8222   12.6120   23.4373 C   0  0  0  0  0  0  0  0  0  0  0  0
    8.2496   11.5146   23.9917 N   0  0  0  0  0  0  0  0  0  0  0  0
    7.2043   11.6960   24.8370 C   0  0  0  0  0  0  0  0  0  0  0  0
    6.6921   12.9574   25.1170 C   0  0  0  0  0  0  0  0  0  0  0  0
    7.3248   14.0638   24.5455 C   0  0  0  0  0  0  0  0  0  0  0  0
    8.4274   13.9111   23.7000 C   0  0  0  0  0  0  0  0  0  0  0  0
    9.1766   15.1429   23.2354 C   0  0  0  0  0  0  0  0  0  0  0  0
   10.5955   15.1968   23.8279 C   0  0  0  0  0  0  0  0  0  0  0  0
   11.6730   14.6310   22.9155 C   0  0  0  0  0  0  0  0  0  0  0  0
   11.5861   15.2532   21.6064 N   0  0  0  0  0  0  0  0  0  0  0  0
   10.3320   14.8904   20.9549 C   0  0  0  0  0  0  0  0  0  0  0  0
    9.1308   15.4218   21.7258 C   0  0  0  0  0  0  0  0  0  0  0  0
    5.5495   13.1673   26.0686 C   0  0  0  0  0  0  0  0  0  0  0  0
    4.7254   11.9079   26.3027 C   0  0  0  0  0  0  0  0  0  0  0  0
    5.6253   10.7218   26.5976 C   0  0  0  0  0  0  0  0  0  0  0  0
    6.5916   10.4623   25.4457 C   0  0  0  0  0  0  0  0  0  0  0  0
  1  2  2  0
  2  3  1  0
  3  4  2  0
  4  5  1  0
  5  6  2  0
  6  7  1  0
  7  8  1  0
  8  9  1  0
  9 10  1  0
 10 11  1  0
 11 12  1  0
  4 13  1  0
 13 14  1  0
 14 15  1  0
 15 16  1  0
  6  1  1  0
 12  7  1  0
 16  3  1  0
M  END
>  <ref_pdb>  (565) 
A3618a

>  <subsites>  (565) 
1 - Active Site

>  <HIPPO Compound ID>  (565) 
129989

>  <energy_score>  (565) 
-22.641013

>  <fragmenstein_mode>  (565) 
expansion

>  <scratch_subdir>  (565) 
/opt/xchem-fragalysis-2/maxwin/BulkDock/SCRATCH/511180/C1800-P198

>  <smiles>  (565) 
c1nc2c(cc1C1CCNCC1)CCCC2

>  <alias>  (565) 
C1800-P198

>  <ref_mols>  (565) 
A0556a,A3618a

>  <inspiration_score>  (565) 
None

>  <tags>  (565) 
BulkDock Fragalysis export,fragmenstein_placed,openbind_a71ev2a_c1_knitwork_impure,openbind_a71ev2a_c1_scaffolds

>  <fragmenstein_outcome>  (565) 
acceptable

>  <fragmenstein_error>  (565) 


>  <distance_score>  (565) 
0.888434

>  <inchikey>  (565) 
ILKJWDJJINULLS-UHFFFAOYSA-N

>  <name>  (565) 
C1800-P198

>  <HIPPO Pose ID>  (565) 
363680

>  <Energy>  (565) 
25.716589

>  <exports>  (565) 
['/opt/xchem-fragalysis-2/maxwin/BulkDock/OUTPUTS/openbind_a71ev2a_c1_knitwork_impure_165VXJF.sdf', '/opt/xchem-fragalysis-2/maxwin/BulkDock/OUTPUTS/openbind_a71ev2a_c1_knitwork_impure_1B07QS4.sdf', '/opt/xchem-fragalysis-2/maxwin/BulkDock/OUTPUTS/openbind_a71ev2a_c1_knitwork_impure_1B07X5R.sdf', '/opt/xchem-fragalysis-2/maxwin/openbind-hippo/a71ev2a/openbind_a71ev2a_c1_scaffold_products.sdf', '/opt/xchem-fragalysis-2/maxwin/openbind-hippo/a71ev2a/cycle_01/bulkdock/openbind_a71ev2a_c1_scaffold_products.sdf', '/opt/xchem-fragalysis-2/maxwin/openbind-hippo/a71ev2a/cycle_01/bulkdock/openbind_a71ev2a_c1_scaffolds.sdf']

>  <fragmenstein_runtime>  (565) 
26.356296

$$$$
C2384-P313
     RDKit          3D

 15 15  0  0  0  0  0  0  0  0999 V2000
   12.1277   15.5723   22.5963 C   0  0  0  0  0  0  0  0  0  0  0  0
   10.7087   15.9292   23.0061 C   0  0  0  0  0  0  0  0  0  0  0  0
    9.7243   15.0291   22.2556 C   0  0  2  0  0  0  0  0  0  0  0  0
    9.1425   15.8090   21.0773 C   0  0  0  0  0  0  0  0  0  0  0  0
    8.6173   14.3997   23.1017 C   0  0  0  0  0  0  0  0  0  0  0  0
    7.4552   14.4100   22.6791 O   0  0  0  0  0  0  0  0  0  0  0  0
    8.9335   13.6538   24.4280 C   0  0  0  0  0  0  0  0  0  0  0  0
   10.4176   13.2624   24.5602 C   0  0  0  0  0  0  0  0  0  0  0  0
    8.5919   14.6319   25.5831 C   0  0  0  0  0  0  0  0  0  0  0  0
    8.0112   12.3559   24.4258 C   0  0  2  0  0  0  0  0  0  0  0  0
    7.2496   12.1566   25.7445 C   0  0  0  0  0  0  0  0  0  0  0  0
    6.5582   10.8068   25.8843 C   0  0  0  0  0  0  0  0  0  0  0  0
    7.2688    9.6843   25.1509 C   0  0  0  0  0  0  0  0  0  0  0  0
    8.6623    9.9682   24.8587 N   0  0  0  0  0  0  0  0  0  0  0  0
    8.7194   11.0739   23.9210 C   0  0  0  0  0  0  0  0  0  0  0  0
  1  2  1  0
  2  3  1  0
  3  4  1  6
  3  5  1  0
  5  6  2  0
  5  7  1  0
  7  8  1  0
  7  9  1  0
 10  7  1  1
 10 11  1  0
 11 12  1  0
 12 13  1  0
 13 14  1  0
 14 15  1  0
 15 10  1  0
M  END
>  <ref_pdb>  (566) 
A4336a

>  <subsites>  (566) 
1 - Active Site

>  <HIPPO Compound ID>  (566) 
10831

>  <energy_score>  (566) 
-29.485901

>  <fragmenstein_mode>  (566) 
expansion

>  <scratch_subdir>  (566) 
/opt/xchem-fragalysis-2/maxwin/BulkDock/SCRATCH/511180/C2384-P313

>  <smiles>  (566) 
CC[C@H](C)C(=O)C(C)(C)[C@@H]1CCCNC1

>  <alias>  (566) 
C2384-P313

>  <ref_mols>  (566) 
A4336a,A1779a

>  <inspiration_score>  (566) 
None

>  <tags>  (566) 
BulkDock Fragalysis export,fragmenstein_placed,openbind_a71ev2a_c1_knitwork_impure,openbind_a71ev2a_c1_scaffolds

>  <fragmenstein_outcome>  (566) 
acceptable

>  <fragmenstein_error>  (566) 


>  <distance_score>  (566) 
0.931081

>  <inchikey>  (566) 
LAVULZBUGIJAIW-UHFFFAOYSA-N

>  <name>  (566) 
C2384-P313

>  <HIPPO Pose ID>  (566) 
363807

>  <Energy>  (566) 
53.378633

>  <exports>  (566) 
['/opt/xchem-fragalysis-2/maxwin/BulkDock/OUTPUTS/openbind_a71ev2a_c1_knitwork_impure_165VXJF.sdf', '/opt/xchem-fragalysis-2/maxwin/BulkDock/OUTPUTS/openbind_a71ev2a_c1_knitwork_impure_1B07QS4.sdf', '/opt/xchem-fragalysis-2/maxwin/BulkDock/OUTPUTS/openbind_a71ev2a_c1_knitwork_impure_1B07X5R.sdf', '/opt/xchem-fragalysis-2/maxwin/openbind-hippo/a71ev2a/openbind_a71ev2a_c1_scaffold_products.sdf', '/opt/xchem-fragalysis-2/maxwin/openbind-hippo/a71ev2a/cycle_01/bulkdock/openbind_a71ev2a_c1_scaffold_products.sdf', '/opt/xchem-fragalysis-2/maxwin/openbind-hippo/a71ev2a/cycle_01/bulkdock/openbind_a71ev2a_c1_scaffolds.sdf']

>  <fragmenstein_runtime>  (566) 
2.744087

$$$$
C7137-P304
     RDKit          3D

 19 20  0  0  0  0  0  0  0  0999 V2000
    3.3486   12.3433   30.6991 C   0  0  0  0  0  0  0  0  0  0  0  0
    3.0870   11.2930   29.6229 C   0  0  2  0  0  0  0  0  0  0  0  0
    3.3739   11.9075   28.2387 C   0  0  0  0  0  0  0  0  0  0  0  0
    4.6071   11.2774   27.6104 C   0  0  0  0  0  0  0  0  0  0  0  0
    4.9724   10.2047   27.8886 O   0  0  0  0  0  0  0  0  0  0  0  0
    5.1707   12.2966   26.5880 N   0  0  0  0  0  0  0  0  0  0  0  0
    6.1747   12.1761   25.6913 C   0  0  0  0  0  0  0  0  0  0  0  0
    6.6516   13.1713   24.9870 N   0  0  0  0  0  0  0  0  0  0  0  0
    7.6820   12.7075   24.1902 C   0  0  0  0  0  0  0  0  0  0  0  0
    7.9476   11.3644   24.3134 C   0  0  0  0  0  0  0  0  0  0  0  0
    9.1805   10.6598   23.6770 C   0  0  0  0  0  0  0  0  0  0  0  0
    9.1211    9.1475   23.3911 C   0  0  0  0  0  0  0  0  0  0  0  0
   10.3139    8.9495   24.2371 N   0  0  0  0  0  0  0  0  0  0  0  0
   10.1534   10.2869   24.7928 C   0  0  0  0  0  0  0  0  0  0  0  0
    6.8854   10.6546   25.4400 S   0  0  0  0  0  0  0  0  0  0  0  0
    1.6616   10.7789   29.6940 C   0  0  0  0  0  0  0  0  0  0  0  0
    1.3738   10.3037   30.9226 F   0  0  0  0  0  0  0  0  0  0  0  0
    1.4638    9.7800   28.8034 F   0  0  0  0  0  0  0  0  0  0  0  0
    0.7868   11.7635   29.4065 F   0  0  0  0  0  0  0  0  0  0  0  0
  2  1  1  1
  2  3  1  0
  3  4  1  0
  4  5  2  0
  4  6  1  0
  6  7  1  0
  7  8  2  0
  8  9  1  0
  9 10  2  0
 10 11  1  0
 11 12  1  0
 12 13  1  0
 13 14  1  0
 10 15  1  0
  2 16  1  0
 16 17  1  0
 16 18  1  0
 16 19  1  0
 15  7  1  0
 14 11  1  0
M  END
>  <ref_pdb>  (567) 
A4321a

>  <subsites>  (567) 
1 - Active Site

>  <HIPPO Compound ID>  (567) 
8973

>  <energy_score>  (567) 
-36.600401

>  <fragmenstein_mode>  (567) 
expansion

>  <scratch_subdir>  (567) 
/opt/xchem-fragalysis-2/maxwin/BulkDock/SCRATCH/512026/C7137-P304

>  <smiles>  (567) 
C[C@H](CC(=O)Nc1ncc(C2CNC2)s1)C(F)(F)F

>  <alias>  (567) 
C7137-P304

>  <ref_mols>  (567) 
A1445a,A4321a

>  <inspiration_score>  (567) 
None

>  <tags>  (567) 
BulkDock Fragalysis export,fragmenstein_placed,openbind_a71ev2a_c1_knitwork_impure,openbind_a71ev2a_c1_scaffolds

>  <fragmenstein_outcome>  (567) 
acceptable

>  <fragmenstein_error>  (567) 


>  <distance_score>  (567) 
0.978401

>  <inchikey>  (567) 
QEVCNVOOKXMKLD-UHFFFAOYSA-N

>  <name>  (567) 
C7137-P304

>  <HIPPO Pose ID>  (567) 
364096

>  <Energy>  (567) 
1.864527

>  <exports>  (567) 
['/opt/xchem-fragalysis-2/maxwin/BulkDock/OUTPUTS/openbind_a71ev2a_c1_knitwork_impure_165VXJF.sdf', '/opt/xchem-fragalysis-2/maxwin/BulkDock/OUTPUTS/openbind_a71ev2a_c1_knitwork_impure_1B07QS4.sdf', '/opt/xchem-fragalysis-2/maxwin/BulkDock/OUTPUTS/openbind_a71ev2a_c1_knitwork_impure_1B07X5R.sdf', '/opt/xchem-fragalysis-2/maxwin/openbind-hippo/a71ev2a/openbind_a71ev2a_c1_scaffold_products.sdf', '/opt/xchem-fragalysis-2/maxwin/openbind-hippo/a71ev2a/cycle_01/bulkdock/openbind_a71ev2a_c1_scaffold_products.sdf', '/opt/xchem-fragalysis-2/maxwin/openbind-hippo/a71ev2a/cycle_01/bulkdock/openbind_a71ev2a_c1_scaffolds.sdf']

>  <fragmenstein_runtime>  (567) 
4.560367

$$$$
C7139-P304
     RDKit          3D

 21 22  0  0  0  0  0  0  0  0999 V2000
    3.5230   11.6928   30.8738 C   0  0  0  0  0  0  0  0  0  0  0  0
    2.9988   10.4690   30.1212 C   0  0  2  0  0  0  0  0  0  0  0  0
    3.8641   10.0265   28.9395 C   0  0  0  0  0  0  0  0  0  0  0  0
    4.3941   11.1377   28.0423 C   0  0  0  0  0  0  0  0  0  0  0  0
    4.2080   12.2736   28.2158 O   0  0  0  0  0  0  0  0  0  0  0  0
    5.2662   10.4142   26.9882 N   0  0  0  0  0  0  0  0  0  0  0  0
    6.1081   10.9129   26.0524 C   0  0  0  0  0  0  0  0  0  0  0  0
    6.9805   10.2915   25.2034 C   0  0  0  0  0  0  0  0  0  0  0  0
    7.6672   11.3494   24.5614 C   0  0  0  0  0  0  0  0  0  0  0  0
    8.7406   11.3094   23.5142 C   0  0  0  0  0  0  0  0  0  0  0  0
    9.2169    9.9023   23.1451 C   0  0  0  0  0  0  0  0  0  0  0  0
   10.0407    9.2776   24.2461 C   0  0  0  0  0  0  0  0  0  0  0  0
   11.0718   10.1487   24.8149 N   0  0  0  0  0  0  0  0  0  0  0  0
   10.6446   11.5380   25.0484 C   0  0  0  0  0  0  0  0  0  0  0  0
    9.9451   12.1718   23.8700 C   0  0  0  0  0  0  0  0  0  0  0  0
    7.2376   12.5455   24.9845 N   0  0  0  0  0  0  0  0  0  0  0  0
    6.2415   12.2531   25.8313 N   0  0  0  0  0  0  0  0  0  0  0  0
    1.5510   10.6531   29.7152 C   0  0  0  0  0  0  0  0  0  0  0  0
    0.7892   10.8811   30.8044 F   0  0  0  0  0  0  0  0  0  0  0  0
    1.0932    9.5264   29.1186 F   0  0  0  0  0  0  0  0  0  0  0  0
    1.3812   11.6648   28.8477 F   0  0  0  0  0  0  0  0  0  0  0  0
  2  1  1  6
  2  3  1  0
  3  4  1  0
  4  5  2  0
  4  6  1  0
  6  7  1  0
  7  8  2  0
  8  9  1  0
  9 10  1  0
 10 11  1  0
 11 12  1  0
 12 13  1  0
 13 14  1  0
 14 15  1  0
  9 16  2  0
 16 17  1  0
  2 18  1  0
 18 19  1  0
 18 20  1  0
 18 21  1  0
 17  7  1  0
 15 10  1  0
M  END
>  <ref_pdb>  (568) 
A4321a

>  <subsites>  (568) 
1 - Active Site

>  <HIPPO Compound ID>  (568) 
85352

>  <energy_score>  (568) 
-8.163543

>  <fragmenstein_mode>  (568) 
expansion

>  <scratch_subdir>  (568) 
/opt/xchem-fragalysis-2/maxwin/BulkDock/SCRATCH/512026/C7139-P304

>  <smiles>  (568) 
C[C@H](CC(=O)Nc1cc(C2CCNCC2)n[nH]1)C(F)(F)F

>  <alias>  (568) 
C7139-P304

>  <ref_mols>  (568) 
A1445a,A4321a

>  <inspiration_score>  (568) 
None

>  <tags>  (568) 
BulkDock Fragalysis export,fragmenstein_placed,openbind_a71ev2a_c1_knitwork_impure,openbind_a71ev2a_c1_scaffolds

>  <fragmenstein_outcome>  (568) 
acceptable

>  <fragmenstein_error>  (568) 


>  <distance_score>  (568) 
0.939405

>  <inchikey>  (568) 
QWJIGENMFCZKMW-UHFFFAOYSA-N

>  <name>  (568) 
C7139-P304

>  <HIPPO Pose ID>  (568) 
364098

>  <Energy>  (568) 
14.733117

>  <exports>  (568) 
['/opt/xchem-fragalysis-2/maxwin/BulkDock/OUTPUTS/openbind_a71ev2a_c1_knitwork_impure_165VXJF.sdf', '/opt/xchem-fragalysis-2/maxwin/BulkDock/OUTPUTS/openbind_a71ev2a_c1_knitwork_impure_1B07QS4.sdf', '/opt/xchem-fragalysis-2/maxwin/BulkDock/OUTPUTS/openbind_a71ev2a_c1_knitwork_impure_1B07X5R.sdf', '/opt/xchem-fragalysis-2/maxwin/openbind-hippo/a71ev2a/openbind_a71ev2a_c1_scaffold_products.sdf', '/opt/xchem-fragalysis-2/maxwin/openbind-hippo/a71ev2a/cycle_01/bulkdock/openbind_a71ev2a_c1_scaffold_products.sdf', '/opt/xchem-fragalysis-2/maxwin/openbind-hippo/a71ev2a/cycle_01/bulkdock/openbind_a71ev2a_c1_scaffolds.sdf']

>  <fragmenstein_runtime>  (568) 
5.234002

$$$$
C4728-P204
     RDKit          3D

  9  9  0  0  0  0  0  0  0  0999 V2000
    7.3411   11.4818   25.7392 O   0  0  0  0  0  0  0  0  0  0  0  0
    7.0470   12.4790   25.0826 C   0  0  0  0  0  0  0  0  0  0  0  0
    7.8786   12.9758   23.9347 C   0  0  0  0  0  0  0  0  0  0  0  0
    9.0274   13.8417   24.4428 C   0  0  0  0  0  0  0  0  0  0  0  0
   10.0781   13.9292   23.4454 N   0  0  0  0  0  0  0  0  0  0  0  0
   11.3649   14.4442   23.9166 C   0  0  0  0  0  0  0  0  0  0  0  0
   11.9782   15.0205   22.6905 C   0  0  0  0  0  0  0  0  0  0  0  0
   11.0643   15.1303   21.7235 C   0  0  0  0  0  0  0  0  0  0  0  0
    9.7458   14.6358   22.2010 C   0  0  0  0  0  0  0  0  0  0  0  0
  1  2  2  0
  2  3  1  0
  3  4  1  0
  4  5  1  0
  5  6  1  0
  6  7  1  0
  7  8  2  0
  8  9  1  0
  9  5  1  0
M  END
>  <ref_pdb>  (569) 
A3685a

>  <subsites>  (569) 
1 - Active Site

>  <HIPPO Compound ID>  (569) 
94799

>  <energy_score>  (569) 
-9.615131

>  <fragmenstein_mode>  (569) 
expansion

>  <scratch_subdir>  (569) 
/opt/xchem-fragalysis-2/maxwin/BulkDock/SCRATCH/512026/C4728-P204

>  <smiles>  (569) 
O=CCCN1CC=CC1

>  <alias>  (569) 
C4728-P204

>  <ref_mols>  (569) 
A1775a,A3685a

>  <inspiration_score>  (569) 
None

>  <tags>  (569) 
BulkDock Fragalysis export,fragmenstein_placed,openbind_a71ev2a_c1_knitwork_impure,openbind_a71ev2a_c1_scaffolds

>  <fragmenstein_outcome>  (569) 
acceptable

>  <fragmenstein_error>  (569) 


>  <distance_score>  (569) 
0.620835

>  <inchikey>  (569) 
UTSSZZOTMTVFDK-UHFFFAOYSA-N

>  <name>  (569) 
C4728-P204

>  <HIPPO Pose ID>  (569) 
364287

>  <Energy>  (569) 
1.555633

>  <exports>  (569) 
['/opt/xchem-fragalysis-2/maxwin/BulkDock/OUTPUTS/openbind_a71ev2a_c1_knitwork_impure_165VXJF.sdf', '/opt/xchem-fragalysis-2/maxwin/BulkDock/OUTPUTS/openbind_a71ev2a_c1_knitwork_impure_1B07QS4.sdf', '/opt/xchem-fragalysis-2/maxwin/BulkDock/OUTPUTS/openbind_a71ev2a_c1_knitwork_impure_1B07X5R.sdf', '/opt/xchem-fragalysis-2/maxwin/openbind-hippo/a71ev2a/openbind_a71ev2a_c1_scaffold_products.sdf', '/opt/xchem-fragalysis-2/maxwin/openbind-hippo/a71ev2a/cycle_01/bulkdock/openbind_a71ev2a_c1_scaffold_products.sdf', '/opt/xchem-fragalysis-2/maxwin/openbind-hippo/a71ev2a/cycle_01/bulkdock/openbind_a71ev2a_c1_scaffolds.sdf']

>  <fragmenstein_runtime>  (569) 
1.270666

$$$$
C7479-P192
     RDKit          3D

 23 24  0  0  0  0  0  0  0  0999 V2000
    3.3669   12.3699   18.2300 C   0  0  0  0  0  0  0  0  0  0  0  0
    3.2708   12.6207   19.7342 C   0  0  0  0  0  0  0  0  0  0  0  0
    2.2136   11.7127   20.3606 C   0  0  0  0  0  0  0  0  0  0  0  0
    2.9870   14.0428   20.0301 C   0  0  0  0  0  0  0  0  0  0  0  0
    2.0455   14.6385   19.2401 O   0  0  0  0  0  0  0  0  0  0  0  0
    2.0091   15.9162   19.6740 C   0  0  0  0  0  0  0  0  0  0  0  0
    2.8195   16.1927   20.6725 N   0  0  0  0  0  0  0  0  0  0  0  0
    3.4222   14.9778   20.9542 C   0  0  0  0  0  0  0  0  0  0  0  0
    4.3522   14.8280   22.1180 C   0  0  0  0  0  0  0  0  0  0  0  0
    5.6159   15.4778   21.7950 N   0  0  0  0  0  0  0  0  0  0  0  0
    7.0326   14.6932   22.2153 S   0  0  0  0  0  0  0  0  0  0  0  0
    6.7936   13.3285   21.7668 O   0  0  0  0  0  0  0  0  0  0  0  0
    8.0073   15.4206   21.4277 O   0  0  0  0  0  0  0  0  0  0  0  0
    6.9809   14.9305   23.7298 N   0  0  0  0  0  0  0  0  0  0  0  0
    8.3275   14.6385   24.4158 S   0  0  2  0  0  0  0  0  0  0  0  0
    8.1571   15.2612   26.0775 C   0  0  0  0  0  0  0  0  0  0  0  0
    9.6059   15.1416   23.9573 O   0  0  0  0  0  0  0  0  0  0  0  0
    8.5572   12.8745   24.7232 C   0  0  0  0  0  0  0  0  0  0  0  0
    9.3239   12.2005   23.5843 C   0  0  0  0  0  0  0  0  0  0  0  0
    9.4874   10.6946   23.7426 C   0  0  0  0  0  0  0  0  0  0  0  0
    8.2713    9.9706   24.2774 C   0  0  0  0  0  0  0  0  0  0  0  0
    7.4839   10.6972   25.3502 C   0  0  0  0  0  0  0  0  0  0  0  0
    7.2476   12.1606   25.0277 C   0  0  0  0  0  0  0  0  0  0  0  0
  1  2  1  0
  2  3  1  0
  2  4  1  0
  4  5  1  0
  5  6  1  0
  6  7  2  0
  7  8  1  0
  8  9  1  0
  9 10  1  0
 10 11  1  0
 11 12  2  0
 11 13  2  0
 11 14  1  0
 14 15  2  0
 15 16  1  1
 15 17  2  0
 15 18  1  0
 18 19  1  0
 19 20  1  0
 20 21  1  0
 21 22  1  0
 22 23  1  0
  8  4  2  0
 23 18  1  0
M  END
>  <ref_pdb>  (570) 
A3510a

>  <subsites>  (570) 
1 - Active Site

>  <HIPPO Compound ID>  (570) 
13838

>  <energy_score>  (570) 
-241.901724

>  <fragmenstein_mode>  (570) 
expansion

>  <scratch_subdir>  (570) 
/opt/xchem-fragalysis-2/maxwin/BulkDock/SCRATCH/512026/C7479-P192

>  <smiles>  (570) 
CC(C)c1ocnc1CNS(=O)(=O)N=[S@](C)(=O)C1CCCCC1

>  <alias>  (570) 
C7479-P192

>  <ref_mols>  (570) 
A3623a,A3510a

>  <inspiration_score>  (570) 
None

>  <tags>  (570) 
BulkDock Fragalysis export,fragmenstein_placed,openbind_a71ev2a_c1_knitwork_impure,openbind_a71ev2a_c1_scaffolds

>  <fragmenstein_outcome>  (570) 
acceptable

>  <fragmenstein_error>  (570) 


>  <distance_score>  (570) 
0.956125

>  <inchikey>  (570) 
IZSCHRLXBICVLQ-UHFFFAOYSA-N

>  <name>  (570) 
C7479-P192

>  <HIPPO Pose ID>  (570) 
364656

>  <Energy>  (570) 
-245.455991

>  <exports>  (570) 
['/opt/xchem-fragalysis-2/maxwin/BulkDock/OUTPUTS/openbind_a71ev2a_c1_knitwork_impure_165VXJF.sdf', '/opt/xchem-fragalysis-2/maxwin/BulkDock/OUTPUTS/openbind_a71ev2a_c1_knitwork_impure_1B07QS4.sdf', '/opt/xchem-fragalysis-2/maxwin/BulkDock/OUTPUTS/openbind_a71ev2a_c1_knitwork_impure_1B07X5R.sdf', '/opt/xchem-fragalysis-2/maxwin/openbind-hippo/a71ev2a/openbind_a71ev2a_c1_scaffold_products.sdf', '/opt/xchem-fragalysis-2/maxwin/openbind-hippo/a71ev2a/cycle_01/bulkdock/openbind_a71ev2a_c1_scaffold_products.sdf', '/opt/xchem-fragalysis-2/maxwin/openbind-hippo/a71ev2a/cycle_01/bulkdock/openbind_a71ev2a_c1_scaffolds.sdf']

>  <fragmenstein_runtime>  (570) 
4.188717

$$$$
C6056-P493
     RDKit          3D

 15 17  0  0  0  0  0  0  0  0999 V2000
    9.7105   10.8267   23.4864 C   0  0  0  0  0  0  0  0  0  0  0  0
    8.8386   10.6719   24.5554 C   0  0  0  0  0  0  0  0  0  0  0  0
    8.3820   11.8170   25.1658 C   0  0  0  0  0  0  0  0  0  0  0  0
    8.8092   13.0808   24.7479 C   0  0  0  0  0  0  0  0  0  0  0  0
    9.6234   13.2788   23.6478 C   0  0  0  0  0  0  0  0  0  0  0  0
    9.8854   14.5687   23.2174 N   0  0  0  0  0  0  0  0  0  0  0  0
   10.9658   15.2561   23.9376 C   0  0  0  0  0  0  0  0  0  0  0  0
   12.2947   15.1057   23.1819 C   0  0  0  0  0  0  0  0  0  0  0  0
   12.2266   15.6988   21.8410 N   0  0  0  0  0  0  0  0  0  0  0  0
   11.1832   14.9889   21.0745 C   0  0  0  0  0  0  0  0  0  0  0  0
    9.8066   14.9221   21.7790 C   0  0  0  0  0  0  0  0  0  0  0  0
   10.0925   12.1154   23.0456 C   0  0  0  0  0  0  0  0  0  0  0  0
    8.2139   14.1138   25.6362 C   0  0  0  0  0  0  0  0  0  0  0  0
    7.0953   13.2914   26.2802 C   0  0  0  0  0  0  0  0  0  0  0  0
    7.4898   11.8633   26.2714 N   0  0  0  0  0  0  0  0  0  0  0  0
  1  2  2  0
  2  3  1  0
  3  4  2  0
  4  5  1  0
  5  6  1  0
  6  7  1  0
  7  8  1  0
  8  9  1  0
  9 10  1  0
 10 11  1  0
  5 12  2  0
  4 13  1  0
 13 14  1  0
 14 15  1  0
 12  1  1  0
 15  3  1  0
 11  6  1  0
M  END
>  <ref_pdb>  (571) 
A4873b

>  <subsites>  (571) 
1 - Active Site

>  <HIPPO Compound ID>  (571) 
1391

>  <energy_score>  (571) 
-30.470151

>  <fragmenstein_mode>  (571) 
expansion

>  <scratch_subdir>  (571) 
/opt/xchem-fragalysis-2/maxwin/BulkDock/SCRATCH/512026/C6056-P493

>  <smiles>  (571) 
c1cc2c(c(N3CCNCC3)c1)CCN2

>  <alias>  (571) 
C6056-P493

>  <ref_mols>  (571) 
A1778a,A4873b

>  <inspiration_score>  (571) 
None

>  <tags>  (571) 
BulkDock Fragalysis export,fragmenstein_placed,openbind_a71ev2a_c1_knitwork_impure,openbind_a71ev2a_c1_scaffolds

>  <fragmenstein_outcome>  (571) 
acceptable

>  <fragmenstein_error>  (571) 


>  <distance_score>  (571) 
0.961863

>  <inchikey>  (571) 
RQFZEASXPNBDLI-UHFFFAOYSA-N

>  <name>  (571) 
C6056-P493

>  <HIPPO Pose ID>  (571) 
365470

>  <Energy>  (571) 
105.092537

>  <exports>  (571) 
['/opt/xchem-fragalysis-2/maxwin/BulkDock/OUTPUTS/openbind_a71ev2a_c1_knitwork_impure_165VXJF.sdf', '/opt/xchem-fragalysis-2/maxwin/BulkDock/OUTPUTS/openbind_a71ev2a_c1_knitwork_impure_1B07QS4.sdf', '/opt/xchem-fragalysis-2/maxwin/BulkDock/OUTPUTS/openbind_a71ev2a_c1_knitwork_impure_1B07X5R.sdf', '/opt/xchem-fragalysis-2/maxwin/openbind-hippo/a71ev2a/openbind_a71ev2a_c1_scaffold_products.sdf', '/opt/xchem-fragalysis-2/maxwin/openbind-hippo/a71ev2a/cycle_01/bulkdock/openbind_a71ev2a_c1_scaffold_products.sdf', '/opt/xchem-fragalysis-2/maxwin/openbind-hippo/a71ev2a/cycle_01/bulkdock/openbind_a71ev2a_c1_scaffolds.sdf']

>  <fragmenstein_runtime>  (571) 
1.842772

$$$$
C4655-P339
     RDKit          3D

 11 11  0  0  0  0  0  0  0  0999 V2000
    8.5028   13.0569   24.0124 C   0  0  0  0  0  0  0  0  0  0  0  0
    7.8650   12.6298   25.3153 C   0  0  0  0  0  0  0  0  0  0  0  0
    6.9589   13.6596   25.9724 C   0  0  0  0  0  0  0  0  0  0  0  0
    5.8207   13.3291   26.3249 O   0  0  0  0  0  0  0  0  0  0  0  0
    7.4589   15.0721   26.3122 C   0  0  1  0  0  0  0  0  0  0  0  0
    8.7680   15.0553   27.1004 C   0  0  0  0  0  0  0  0  0  0  0  0
    9.3952   16.4154   27.4195 C   0  0  0  0  0  0  0  0  0  0  0  0
    8.4355   17.5971   27.5400 C   0  0  0  0  0  0  0  0  0  0  0  0
    8.1306   18.1785   26.2408 N   0  0  0  0  0  0  0  0  0  0  0  0
    7.1269   17.4491   25.4597 C   0  0  0  0  0  0  0  0  0  0  0  0
    7.4748   16.0008   25.0994 C   0  0  0  0  0  0  0  0  0  0  0  0
  1  2  1  0
  2  3  1  0
  3  4  2  0
  5  3  1  6
  5  6  1  0
  6  7  1  0
  7  8  1  0
  8  9  1  0
  9 10  1  0
 10 11  1  0
 11  5  1  0
M  END
>  <ref_pdb>  (572) 
A4237b

>  <subsites>  (572) 
1 - Active Site

>  <HIPPO Compound ID>  (572) 
27720

>  <energy_score>  (572) 
-15.649876

>  <fragmenstein_mode>  (572) 
expansion

>  <scratch_subdir>  (572) 
/opt/xchem-fragalysis-2/maxwin/BulkDock/SCRATCH/512026/C4655-P339

>  <smiles>  (572) 
CCC(=O)[C@H]1CCCNCC1

>  <alias>  (572) 
C4655-P339

>  <ref_mols>  (572) 
A4237b,A4320a

>  <inspiration_score>  (572) 
None

>  <tags>  (572) 
BulkDock Fragalysis export,fragmenstein_placed,openbind_a71ev2a_c1_knitwork_impure,openbind_a71ev2a_c1_scaffolds

>  <fragmenstein_outcome>  (572) 
acceptable

>  <fragmenstein_error>  (572) 


>  <distance_score>  (572) 
0.944117

>  <inchikey>  (572) 
ADVKSLWFNRLRGX-UHFFFAOYSA-N

>  <name>  (572) 
C4655-P339

>  <HIPPO Pose ID>  (572) 
365814

>  <Energy>  (572) 
12.406313

>  <exports>  (572) 
['/opt/xchem-fragalysis-2/maxwin/BulkDock/OUTPUTS/openbind_a71ev2a_c1_knitwork_impure_165VXJF.sdf', '/opt/xchem-fragalysis-2/maxwin/BulkDock/OUTPUTS/openbind_a71ev2a_c1_knitwork_impure_1B07QS4.sdf', '/opt/xchem-fragalysis-2/maxwin/BulkDock/OUTPUTS/openbind_a71ev2a_c1_knitwork_impure_1B07X5R.sdf', '/opt/xchem-fragalysis-2/maxwin/openbind-hippo/a71ev2a/openbind_a71ev2a_c1_scaffold_products.sdf', '/opt/xchem-fragalysis-2/maxwin/openbind-hippo/a71ev2a/cycle_01/bulkdock/openbind_a71ev2a_c1_scaffold_products.sdf', '/opt/xchem-fragalysis-2/maxwin/openbind-hippo/a71ev2a/cycle_01/bulkdock/openbind_a71ev2a_c1_scaffolds.sdf']

>  <fragmenstein_runtime>  (572) 
1.191796

$$$$
C4699-P339
     RDKit          3D

 11 11  0  0  0  0  0  0  0  0999 V2000
    8.3669   13.1407   23.9223 C   0  0  0  0  0  0  0  0  0  0  0  0
    7.9378   12.6264   25.2768 C   0  0  0  0  0  0  0  0  0  0  0  0
    7.0059   13.5407   26.0560 C   0  0  0  0  0  0  0  0  0  0  0  0
    5.9378   13.0909   26.4879 O   0  0  0  0  0  0  0  0  0  0  0  0
    7.3901   14.9909   26.3921 C   0  0  0  0  0  0  0  0  0  0  0  0
    8.8624   15.1772   26.7657 C   0  0  0  0  0  0  0  0  0  0  0  0
    9.1294   16.2489   27.8248 C   0  0  0  0  0  0  0  0  0  0  0  0
    8.2588   17.5016   27.7937 C   0  0  0  0  0  0  0  0  0  0  0  0
    7.9740   18.0457   26.4042 C   0  0  0  0  0  0  0  0  0  0  0  0
    6.7664   17.3967   25.7281 C   0  0  0  0  0  0  0  0  0  0  0  0
    6.9564   15.9472   25.2762 C   0  0  0  0  0  0  0  0  0  0  0  0
  1  2  1  0
  2  3  1  0
  3  4  2  0
  3  5  1  0
  5  6  1  0
  6  7  1  0
  7  8  1  0
  8  9  1  0
  9 10  1  0
 10 11  1  0
 11  5  1  0
M  END
>  <ref_pdb>  (573) 
A4237b

>  <subsites>  (573) 
1 - Active Site

>  <HIPPO Compound ID>  (573) 
798

>  <energy_score>  (573) 
-23.791714

>  <fragmenstein_mode>  (573) 
expansion

>  <scratch_subdir>  (573) 
/opt/xchem-fragalysis-2/maxwin/BulkDock/SCRATCH/512026/C4699-P339

>  <smiles>  (573) 
CCC(=O)C1CCCCCC1

>  <alias>  (573) 
C4699-P339

>  <ref_mols>  (573) 
A4237b,A4320a

>  <inspiration_score>  (573) 
None

>  <tags>  (573) 
BulkDock Fragalysis export,fragmenstein_placed,openbind_a71ev2a_c1_knitwork_impure,openbind_a71ev2a_c1_scaffolds

>  <fragmenstein_outcome>  (573) 
acceptable

>  <fragmenstein_error>  (573) 


>  <distance_score>  (573) 
0.983156

>  <inchikey>  (573) 
XNMOBDIPLKKDMN-UHFFFAOYSA-N

>  <name>  (573) 
C4699-P339

>  <HIPPO Pose ID>  (573) 
365827

>  <Energy>  (573) 
18.341044

>  <exports>  (573) 
['/opt/xchem-fragalysis-2/maxwin/BulkDock/OUTPUTS/openbind_a71ev2a_c1_knitwork_impure_165VXJF.sdf', '/opt/xchem-fragalysis-2/maxwin/BulkDock/OUTPUTS/openbind_a71ev2a_c1_knitwork_impure_1B07QS4.sdf', '/opt/xchem-fragalysis-2/maxwin/BulkDock/OUTPUTS/openbind_a71ev2a_c1_knitwork_impure_1B07X5R.sdf', '/opt/xchem-fragalysis-2/maxwin/openbind-hippo/a71ev2a/openbind_a71ev2a_c1_scaffold_products.sdf', '/opt/xchem-fragalysis-2/maxwin/openbind-hippo/a71ev2a/cycle_01/bulkdock/openbind_a71ev2a_c1_scaffold_products.sdf', '/opt/xchem-fragalysis-2/maxwin/openbind-hippo/a71ev2a/cycle_01/bulkdock/openbind_a71ev2a_c1_scaffolds.sdf']

>  <fragmenstein_runtime>  (573) 
2.208331

$$$$
C4730-P339
     RDKit          3D

 11 11  0  0  0  0  0  0  0  0999 V2000
    8.3881   13.7998   23.5020 C   0  0  0  0  0  0  0  0  0  0  0  0
    8.5143   13.0833   24.8315 C   0  0  0  0  0  0  0  0  0  0  0  0
    7.4670   13.4654   25.8731 C   0  0  0  0  0  0  0  0  0  0  0  0
    6.7319   12.5965   26.3590 O   0  0  0  0  0  0  0  0  0  0  0  0
    7.3641   14.9129   26.3636 C   0  0  1  0  0  0  0  0  0  0  0  0
    8.7458   15.5173   26.6346 C   0  0  0  0  0  0  0  0  0  0  0  0
    8.7438   16.6144   27.6976 C   0  0  0  0  0  0  0  0  0  0  0  0
    8.3794   17.9995   27.1882 C   0  0  0  0  0  0  0  0  0  0  0  0
    6.9951   18.1208   26.5643 C   0  0  0  0  0  0  0  0  0  0  0  0
    6.8783   17.4604   25.1988 C   0  0  0  0  0  0  0  0  0  0  0  0
    6.2016   15.7852   25.2544 S   0  0  0  0  0  0  0  0  0  0  0  0
  1  2  1  0
  2  3  1  0
  3  4  2  0
  5  3  1  6
  5  6  1  0
  6  7  1  0
  7  8  1  0
  8  9  1  0
  9 10  1  0
 10 11  1  0
 11  5  1  0
M  END
>  <ref_pdb>  (574) 
A4237b

>  <subsites>  (574) 
1 - Active Site

>  <HIPPO Compound ID>  (574) 
36705

>  <energy_score>  (574) 
-17.981925

>  <fragmenstein_mode>  (574) 
expansion

>  <scratch_subdir>  (574) 
/opt/xchem-fragalysis-2/maxwin/BulkDock/SCRATCH/512026/C4730-P339

>  <smiles>  (574) 
CCC(=O)[C@H]1CCCCCS1

>  <alias>  (574) 
C4730-P339

>  <ref_mols>  (574) 
A4237b,A4320a

>  <inspiration_score>  (574) 
None

>  <tags>  (574) 
BulkDock Fragalysis export,fragmenstein_placed,openbind_a71ev2a_c1_knitwork_impure,openbind_a71ev2a_c1_scaffolds

>  <fragmenstein_outcome>  (574) 
acceptable

>  <fragmenstein_error>  (574) 


>  <distance_score>  (574) 
0.826607

>  <inchikey>  (574) 
ONRWVJVKMVEFCF-UHFFFAOYSA-N

>  <name>  (574) 
C4730-P339

>  <HIPPO Pose ID>  (574) 
365832

>  <Energy>  (574) 
35.984215

>  <exports>  (574) 
['/opt/xchem-fragalysis-2/maxwin/BulkDock/OUTPUTS/openbind_a71ev2a_c1_knitwork_impure_165VXJF.sdf', '/opt/xchem-fragalysis-2/maxwin/BulkDock/OUTPUTS/openbind_a71ev2a_c1_knitwork_impure_1B07QS4.sdf', '/opt/xchem-fragalysis-2/maxwin/BulkDock/OUTPUTS/openbind_a71ev2a_c1_knitwork_impure_1B07X5R.sdf', '/opt/xchem-fragalysis-2/maxwin/openbind-hippo/a71ev2a/openbind_a71ev2a_c1_scaffold_products.sdf', '/opt/xchem-fragalysis-2/maxwin/openbind-hippo/a71ev2a/cycle_01/bulkdock/openbind_a71ev2a_c1_scaffold_products.sdf', '/opt/xchem-fragalysis-2/maxwin/openbind-hippo/a71ev2a/cycle_01/bulkdock/openbind_a71ev2a_c1_scaffolds.sdf']

>  <fragmenstein_runtime>  (574) 
2.981249

$$$$
C6273-P152
     RDKit          3D

 13 14  0  0  0  0  0  0  0  0999 V2000
    8.7088   10.1571   24.6371 C   0  0  0  0  0  0  0  0  0  0  0  0
    8.0476   11.0774   25.4359 C   0  0  0  0  0  0  0  0  0  0  0  0
    8.1250   12.4321   25.1209 C   0  0  0  0  0  0  0  0  0  0  0  0
    8.8490   12.8382   23.9955 C   0  0  0  0  0  0  0  0  0  0  0  0
    8.8369   14.3138   23.6015 C   0  0  1  0  0  0  0  0  0  0  0  0
    9.7025   15.2257   24.3409 N   0  0  0  0  0  0  0  0  0  0  0  0
   11.0712   14.7926   24.5636 C   0  0  0  0  0  0  0  0  0  0  0  0
   11.9264   14.3827   23.3681 C   0  0  0  0  0  0  0  0  0  0  0  0
   11.6198   15.1069   22.0622 C   0  0  0  0  0  0  0  0  0  0  0  0
   10.4998   14.4232   21.2885 C   0  0  0  0  0  0  0  0  0  0  0  0
    8.8005   14.7411   21.8419 S   0  0  0  0  0  0  0  0  0  0  0  0
    9.5298   11.9428   23.2396 N   0  0  0  0  0  0  0  0  0  0  0  0
    9.4370   10.6345   23.5647 C   0  0  0  0  0  0  0  0  0  0  0  0
  1  2  2  0
  2  3  1  0
  3  4  2  0
  5  4  1  6
  5  6  1  0
  6  7  1  0
  7  8  1  0
  8  9  1  0
  9 10  1  0
 10 11  1  0
  4 12  1  0
 12 13  2  0
 13  1  1  0
 11  5  1  0
M  END
>  <ref_pdb>  (575) 
A3201a

>  <subsites>  (575) 
1 - Active Site

>  <HIPPO Compound ID>  (575) 
9079

>  <energy_score>  (575) 
-26.115235

>  <fragmenstein_mode>  (575) 
expansion

>  <scratch_subdir>  (575) 
/opt/xchem-fragalysis-2/maxwin/BulkDock/SCRATCH/512026/C6273-P152

>  <smiles>  (575) 
c1ccc([C@H]2NCCCCS2)nc1

>  <alias>  (575) 
C6273-P152

>  <ref_mols>  (575) 
A3201a,A2629a

>  <inspiration_score>  (575) 
None

>  <tags>  (575) 
BulkDock Fragalysis export,fragmenstein_placed,openbind_a71ev2a_c1_knitwork_impure,openbind_a71ev2a_c1_scaffolds

>  <fragmenstein_outcome>  (575) 
acceptable

>  <fragmenstein_error>  (575) 


>  <distance_score>  (575) 
0.950774

>  <inchikey>  (575) 
YGPKMENKUMLTBY-UHFFFAOYSA-N

>  <name>  (575) 
C6273-P152

>  <HIPPO Pose ID>  (575) 
366428

>  <Energy>  (575) 
36.409594

>  <exports>  (575) 
['/opt/xchem-fragalysis-2/maxwin/BulkDock/OUTPUTS/openbind_a71ev2a_c1_knitwork_impure_165VXJF.sdf', '/opt/xchem-fragalysis-2/maxwin/BulkDock/OUTPUTS/openbind_a71ev2a_c1_knitwork_impure_1B07QS4.sdf', '/opt/xchem-fragalysis-2/maxwin/BulkDock/OUTPUTS/openbind_a71ev2a_c1_knitwork_impure_1B07X5R.sdf', '/opt/xchem-fragalysis-2/maxwin/openbind-hippo/a71ev2a/openbind_a71ev2a_c1_scaffold_products.sdf', '/opt/xchem-fragalysis-2/maxwin/openbind-hippo/a71ev2a/cycle_01/bulkdock/openbind_a71ev2a_c1_scaffold_products.sdf', '/opt/xchem-fragalysis-2/maxwin/openbind-hippo/a71ev2a/cycle_01/bulkdock/openbind_a71ev2a_c1_scaffolds.sdf']

>  <fragmenstein_runtime>  (575) 
5.116678

$$$$
C2382-P2
     RDKit          3D

 15 15  0  0  0  0  0  0  0  0999 V2000
   11.8601   15.3365   21.3622 C   0  0  0  0  0  0  0  0  0  0  0  0
   10.4162   15.1652   20.8978 C   0  0  0  0  0  0  0  0  0  0  0  0
   10.3006   15.6412   19.4506 C   0  0  0  0  0  0  0  0  0  0  0  0
    9.4467   15.9385   21.7912 C   0  0  0  0  0  0  0  0  0  0  0  0
    9.3153   15.3221   23.1783 C   0  0  0  0  0  0  0  0  0  0  0  0
   10.2461   15.4477   23.9881 O   0  0  0  0  0  0  0  0  0  0  0  0
    7.9951   14.5889   23.5924 C   0  0  0  0  0  0  0  0  0  0  0  0
    8.4724   13.2975   24.3058 C   0  0  0  0  0  0  0  0  0  0  0  0
    7.1650   14.1234   22.3911 C   0  0  0  0  0  0  0  0  0  0  0  0
    7.2687   15.5277   24.4918 N   0  0  0  0  0  0  0  0  0  0  0  0
    6.5470   16.6468   23.8734 C   0  0  0  0  0  0  0  0  0  0  0  0
    5.0598   16.3815   23.6150 C   0  0  0  0  0  0  0  0  0  0  0  0
    4.3549   15.8286   24.8467 C   0  0  0  0  0  0  0  0  0  0  0  0
    5.1247   14.6456   25.4206 C   0  0  0  0  0  0  0  0  0  0  0  0
    6.5816   15.0206   25.6764 C   0  0  0  0  0  0  0  0  0  0  0  0
  1  2  1  0
  2  3  1  0
  2  4  1  0
  4  5  1  0
  5  6  2  0
  5  7  1  0
  7  8  1  0
  7  9  1  0
  7 10  1  0
 10 11  1  0
 11 12  1  0
 12 13  1  0
 13 14  1  0
 14 15  1  0
 15 10  1  0
M  END
>  <ref_pdb>  (576) 
A4298a

>  <subsites>  (576) 
1 - Active Site

>  <HIPPO Compound ID>  (576) 
4820

>  <energy_score>  (576) 
-32.79988

>  <fragmenstein_mode>  (576) 
expansion

>  <scratch_subdir>  (576) 
/opt/xchem-fragalysis-2/maxwin/BulkDock/SCRATCH/512026/C2382-P2

>  <smiles>  (576) 
CC(C)CC(=O)C(C)(C)N1CCCCC1

>  <alias>  (576) 
C2382-P2

>  <ref_mols>  (576) 
A4298a,A1775a

>  <inspiration_score>  (576) 
None

>  <tags>  (576) 
BulkDock Fragalysis export,fragmenstein_placed,openbind_a71ev2a_c1_knitwork_impure,openbind_a71ev2a_c1_scaffolds

>  <fragmenstein_outcome>  (576) 
acceptable

>  <fragmenstein_error>  (576) 


>  <distance_score>  (576) 
0.726126

>  <inchikey>  (576) 
IVEXCVXFXPPGNY-UHFFFAOYSA-N

>  <name>  (576) 
C2382-P2

>  <HIPPO Pose ID>  (576) 
366602

>  <Energy>  (576) 
59.298839

>  <exports>  (576) 
['/opt/xchem-fragalysis-2/maxwin/BulkDock/OUTPUTS/openbind_a71ev2a_c1_knitwork_impure_165VXJF.sdf', '/opt/xchem-fragalysis-2/maxwin/BulkDock/OUTPUTS/openbind_a71ev2a_c1_knitwork_impure_1B07QS4.sdf', '/opt/xchem-fragalysis-2/maxwin/BulkDock/OUTPUTS/openbind_a71ev2a_c1_knitwork_impure_1B07X5R.sdf', '/opt/xchem-fragalysis-2/maxwin/openbind-hippo/a71ev2a/openbind_a71ev2a_c1_scaffold_products.sdf', '/opt/xchem-fragalysis-2/maxwin/openbind-hippo/a71ev2a/cycle_01/bulkdock/openbind_a71ev2a_c1_scaffold_products.sdf', '/opt/xchem-fragalysis-2/maxwin/openbind-hippo/a71ev2a/cycle_01/bulkdock/openbind_a71ev2a_c1_scaffolds.sdf']

>  <fragmenstein_runtime>  (576) 
13.873641

$$$$
C15025-P239
     RDKit          3D

 12 12  0  0  0  0  0  0  0  0999 V2000
   10.8213   14.8113   22.8937 C   0  0  0  0  0  0  0  0  0  0  0  0
    9.3428   14.7112   22.5661 C   0  0  0  0  0  0  0  0  0  0  0  0
    8.6273   13.5662   23.2056 N   0  0  0  0  0  0  0  0  0  0  0  0
    8.9130   13.3471   24.8513 S   0  0  0  0  0  0  0  0  0  0  0  0
    8.4374   14.5474   25.5042 O   0  0  0  0  0  0  0  0  0  0  0  0
   10.2618   12.8706   25.0434 O   0  0  0  0  0  0  0  0  0  0  0  0
    7.8296   12.0450   25.3089 C   0  0  0  0  0  0  0  0  0  0  0  0
    6.7467   12.2917   26.1529 C   0  0  0  0  0  0  0  0  0  0  0  0
    5.9881   11.2215   26.6107 C   0  0  0  0  0  0  0  0  0  0  0  0
    6.3463    9.9482   26.2064 C   0  0  0  0  0  0  0  0  0  0  0  0
    7.3939    9.6838   25.3929 N   0  0  0  0  0  0  0  0  0  0  0  0
    8.1260   10.7419   24.9583 C   0  0  0  0  0  0  0  0  0  0  0  0
  1  2  1  0
  2  3  1  0
  3  4  1  0
  4  5  2  0
  4  6  2  0
  4  7  1  0
  7  8  2  0
  8  9  1  0
  9 10  2  0
 10 11  1  0
 11 12  2  0
 12  7  1  0
M  END
>  <ref_pdb>  (577) 
A3920a

>  <subsites>  (577) 
1 - Active Site

>  <HIPPO Compound ID>  (577) 
15053

>  <energy_score>  (577) 
-16.052982

>  <fragmenstein_mode>  (577) 
expansion

>  <scratch_subdir>  (577) 
/opt/xchem-fragalysis-2/maxwin/BulkDock/SCRATCH/512026/C15025-P239

>  <smiles>  (577) 
CCNS(=O)(=O)c1cccnc1

>  <alias>  (577) 
C15025-P239

>  <ref_mols>  (577) 
A0719a,A3920a

>  <inspiration_score>  (577) 
None

>  <tags>  (577) 
BulkDock Fragalysis export,fragmenstein_placed,openbind_a71ev2a_c1_knitwork_impure,openbind_a71ev2a_c1_scaffolds

>  <fragmenstein_outcome>  (577) 
acceptable

>  <fragmenstein_error>  (577) 


>  <distance_score>  (577) 
0.772786

>  <inchikey>  (577) 
GIUVSXLAIVLOML-UHFFFAOYSA-N

>  <name>  (577) 
C15025-P239

>  <HIPPO Pose ID>  (577) 
367285

>  <Energy>  (577) 
-47.806654

>  <exports>  (577) 
['/opt/xchem-fragalysis-2/maxwin/BulkDock/OUTPUTS/openbind_a71ev2a_c1_knitwork_impure_165VXJF.sdf', '/opt/xchem-fragalysis-2/maxwin/BulkDock/OUTPUTS/openbind_a71ev2a_c1_knitwork_impure_1B07QS4.sdf', '/opt/xchem-fragalysis-2/maxwin/BulkDock/OUTPUTS/openbind_a71ev2a_c1_knitwork_impure_1B07X5R.sdf', '/opt/xchem-fragalysis-2/maxwin/openbind-hippo/a71ev2a/openbind_a71ev2a_c1_scaffold_products.sdf', '/opt/xchem-fragalysis-2/maxwin/openbind-hippo/a71ev2a/cycle_01/bulkdock/openbind_a71ev2a_c1_scaffold_products.sdf', '/opt/xchem-fragalysis-2/maxwin/openbind-hippo/a71ev2a/cycle_01/bulkdock/openbind_a71ev2a_c1_scaffolds.sdf']

>  <fragmenstein_runtime>  (577) 
0.996933

$$$$
C15027-P239
     RDKit          3D

 13 13  0  0  0  0  0  0  0  0999 V2000
   11.9735   14.7765   22.9450 C   0  0  0  0  0  0  0  0  0  0  0  0
   10.7690   15.1004   23.4292 C   0  0  0  0  0  0  0  0  0  0  0  0
    9.4850   14.8768   22.6869 C   0  0  0  0  0  0  0  0  0  0  0  0
    8.6343   13.7151   23.1929 C   0  0  0  0  0  0  0  0  0  0  0  0
    7.8305   13.1609   22.4309 O   0  0  0  0  0  0  0  0  0  0  0  0
    8.6845   13.3814   24.6906 C   0  0  1  0  0  0  0  0  0  0  0  0
    8.0232   14.4348   25.3912 O   0  0  0  0  0  0  0  0  0  0  0  0
    8.0856   12.0347   25.0482 C   0  0  0  0  0  0  0  0  0  0  0  0
    7.0180   11.8971   25.9444 C   0  0  0  0  0  0  0  0  0  0  0  0
    6.5379   10.6290   26.2283 C   0  0  0  0  0  0  0  0  0  0  0  0
    7.0589    9.4989   25.7097 N   0  0  0  0  0  0  0  0  0  0  0  0
    8.0922    9.6488   24.8513 C   0  0  0  0  0  0  0  0  0  0  0  0
    8.6281   10.8714   24.4930 C   0  0  0  0  0  0  0  0  0  0  0  0
  1  2  2  0
  2  3  1  0
  3  4  1  0
  4  5  2  0
  4  6  1  0
  6  7  1  1
  6  8  1  0
  8  9  2  0
  9 10  1  0
 10 11  2  0
 11 12  1  0
 12 13  2  0
 13  8  1  0
M  END
>  <ref_pdb>  (578) 
A3920a

>  <subsites>  (578) 
1 - Active Site

>  <HIPPO Compound ID>  (578) 
1257

>  <energy_score>  (578) 
-8.196237

>  <fragmenstein_mode>  (578) 
expansion

>  <scratch_subdir>  (578) 
/opt/xchem-fragalysis-2/maxwin/BulkDock/SCRATCH/512026/C15027-P239

>  <smiles>  (578) 
C=CCC(=O)[C@@H](O)c1ccncc1

>  <alias>  (578) 
C15027-P239

>  <ref_mols>  (578) 
A0719a,A3920a

>  <inspiration_score>  (578) 
None

>  <tags>  (578) 
BulkDock Fragalysis export,fragmenstein_placed,openbind_a71ev2a_c1_knitwork_impure,openbind_a71ev2a_c1_scaffolds

>  <fragmenstein_outcome>  (578) 
acceptable

>  <fragmenstein_error>  (578) 


>  <distance_score>  (578) 
0.710399

>  <inchikey>  (578) 
DETFJAMYSPHHBK-UHFFFAOYSA-N

>  <name>  (578) 
C15027-P239

>  <HIPPO Pose ID>  (578) 
367286

>  <Energy>  (578) 
76.152037

>  <exports>  (578) 
['/opt/xchem-fragalysis-2/maxwin/BulkDock/OUTPUTS/openbind_a71ev2a_c1_knitwork_impure_165VXJF.sdf', '/opt/xchem-fragalysis-2/maxwin/BulkDock/OUTPUTS/openbind_a71ev2a_c1_knitwork_impure_1B07QS4.sdf', '/opt/xchem-fragalysis-2/maxwin/BulkDock/OUTPUTS/openbind_a71ev2a_c1_knitwork_impure_1B07X5R.sdf', '/opt/xchem-fragalysis-2/maxwin/openbind-hippo/a71ev2a/openbind_a71ev2a_c1_scaffold_products.sdf', '/opt/xchem-fragalysis-2/maxwin/openbind-hippo/a71ev2a/cycle_01/bulkdock/openbind_a71ev2a_c1_scaffold_products.sdf', '/opt/xchem-fragalysis-2/maxwin/openbind-hippo/a71ev2a/cycle_01/bulkdock/openbind_a71ev2a_c1_scaffolds.sdf']

>  <fragmenstein_runtime>  (578) 
1.6154

$$$$
C15036-P239
     RDKit          3D

 14 14  0  0  0  0  0  0  0  0999 V2000
   12.2724   16.1233   21.4335 N   0  0  0  0  0  0  0  0  0  0  0  0
   11.7253   15.3803   22.1329 C   0  0  0  0  0  0  0  0  0  0  0  0
   10.9562   14.4839   22.9902 C   0  0  0  0  0  0  0  0  0  0  0  0
    9.4826   14.5146   22.5849 C   0  0  0  0  0  0  0  0  0  0  0  0
    8.6165   13.4668   23.2319 N   0  0  0  0  0  0  0  0  0  0  0  0
    8.8195   13.2974   24.8967 S   0  0  0  0  0  0  0  0  0  0  0  0
   10.1659   12.8432   25.1492 O   0  0  0  0  0  0  0  0  0  0  0  0
    8.3236   14.5244   25.4772 O   0  0  0  0  0  0  0  0  0  0  0  0
    7.7389   12.0020   25.3549 C   0  0  0  0  0  0  0  0  0  0  0  0
    6.6593   12.2508   26.2008 C   0  0  0  0  0  0  0  0  0  0  0  0
    5.9032   11.1806   26.6613 C   0  0  0  0  0  0  0  0  0  0  0  0
    6.2604    9.9071   26.2563 C   0  0  0  0  0  0  0  0  0  0  0  0
    7.3065    9.6419   25.4407 N   0  0  0  0  0  0  0  0  0  0  0  0
    8.0364   10.6990   25.0046 C   0  0  0  0  0  0  0  0  0  0  0  0
  1  2  3  0
  2  3  1  0
  3  4  1  0
  4  5  1  0
  5  6  1  0
  6  7  2  0
  6  8  2  0
  6  9  1  0
  9 10  2  0
 10 11  1  0
 11 12  2  0
 12 13  1  0
 13 14  2  0
 14  9  1  0
M  END
>  <ref_pdb>  (579) 
A3920a

>  <subsites>  (579) 
1 - Active Site

>  <HIPPO Compound ID>  (579) 
15036

>  <energy_score>  (579) 
-26.115794

>  <fragmenstein_mode>  (579) 
expansion

>  <scratch_subdir>  (579) 
/opt/xchem-fragalysis-2/maxwin/BulkDock/SCRATCH/512026/C15036-P239

>  <smiles>  (579) 
N#CCCNS(=O)(=O)c1cccnc1

>  <alias>  (579) 
C15036-P239

>  <ref_mols>  (579) 
A0719a,A3920a

>  <inspiration_score>  (579) 
None

>  <tags>  (579) 
BulkDock Fragalysis export,fragmenstein_placed,openbind_a71ev2a_c1_knitwork_impure,openbind_a71ev2a_c1_scaffolds

>  <fragmenstein_outcome>  (579) 
acceptable

>  <fragmenstein_error>  (579) 


>  <distance_score>  (579) 
0.768853

>  <inchikey>  (579) 
LJZIXTIXXJIVMZ-UHFFFAOYSA-N

>  <name>  (579) 
C15036-P239

>  <HIPPO Pose ID>  (579) 
367297

>  <Energy>  (579) 
-46.099855

>  <exports>  (579) 
['/opt/xchem-fragalysis-2/maxwin/BulkDock/OUTPUTS/openbind_a71ev2a_c1_knitwork_impure_165VXJF.sdf', '/opt/xchem-fragalysis-2/maxwin/BulkDock/OUTPUTS/openbind_a71ev2a_c1_knitwork_impure_1B07QS4.sdf', '/opt/xchem-fragalysis-2/maxwin/BulkDock/OUTPUTS/openbind_a71ev2a_c1_knitwork_impure_1B07X5R.sdf', '/opt/xchem-fragalysis-2/maxwin/openbind-hippo/a71ev2a/openbind_a71ev2a_c1_scaffold_products.sdf', '/opt/xchem-fragalysis-2/maxwin/openbind-hippo/a71ev2a/cycle_01/bulkdock/openbind_a71ev2a_c1_scaffold_products.sdf', '/opt/xchem-fragalysis-2/maxwin/openbind-hippo/a71ev2a/cycle_01/bulkdock/openbind_a71ev2a_c1_scaffolds.sdf']

>  <fragmenstein_runtime>  (579) 
3.023239

$$$$
C15044-P239
     RDKit          3D

 15 15  0  0  0  0  0  0  0  0999 V2000
   10.7251   15.1184   19.6152 N   0  0  0  0  0  0  0  0  0  0  0  0
   11.4015   15.4282   20.5025 C   0  0  0  0  0  0  0  0  0  0  0  0
   12.1989   15.8386   21.6577 C   0  0  0  0  0  0  0  0  0  0  0  0
   12.1209   14.8352   22.8083 C   0  0  0  0  0  0  0  0  0  0  0  0
   10.7878   14.8499   23.5487 C   0  0  0  0  0  0  0  0  0  0  0  0
    9.7708   14.1526   22.7799 N   0  0  0  0  0  0  0  0  0  0  0  0
    8.3603   13.6688   23.5328 S   0  0  0  0  0  0  0  0  0  0  0  0
    8.2270   14.4328   24.7549 O   0  0  0  0  0  0  0  0  0  0  0  0
    7.3424   13.6208   22.5045 O   0  0  0  0  0  0  0  0  0  0  0  0
    8.6071   11.9886   24.0325 C   0  0  0  0  0  0  0  0  0  0  0  0
    7.7756   11.4560   25.0063 C   0  0  0  0  0  0  0  0  0  0  0  0
    7.8673   10.0950   25.2280 C   0  0  0  0  0  0  0  0  0  0  0  0
    8.7716    9.3520   24.4733 C   0  0  0  0  0  0  0  0  0  0  0  0
    9.5682    9.9853   23.5373 C   0  0  0  0  0  0  0  0  0  0  0  0
    9.5216   11.3036   23.3060 N   0  0  0  0  0  0  0  0  0  0  0  0
  1  2  3  0
  2  3  1  0
  3  4  1  0
  4  5  1  0
  5  6  1  0
  6  7  1  0
  7  8  2  0
  7  9  2  0
  7 10  1  0
 10 11  2  0
 11 12  1  0
 12 13  2  0
 13 14  1  0
 14 15  2  0
 15 10  1  0
M  END
>  <ref_pdb>  (580) 
A3920a

>  <subsites>  (580) 
1 - Active Site

>  <HIPPO Compound ID>  (580) 
7185

>  <energy_score>  (580) 
-23.885141

>  <fragmenstein_mode>  (580) 
expansion

>  <scratch_subdir>  (580) 
/opt/xchem-fragalysis-2/maxwin/BulkDock/SCRATCH/512026/C15044-P239

>  <smiles>  (580) 
N#CCCCNS(=O)(=O)c1ccccn1

>  <alias>  (580) 
C15044-P239

>  <ref_mols>  (580) 
A0719a,A3920a

>  <inspiration_score>  (580) 
None

>  <tags>  (580) 
BulkDock Fragalysis export,fragmenstein_placed,openbind_a71ev2a_c1_knitwork_impure,openbind_a71ev2a_c1_scaffolds

>  <fragmenstein_outcome>  (580) 
acceptable

>  <fragmenstein_error>  (580) 


>  <distance_score>  (580) 
0.883668

>  <inchikey>  (580) 
KHYQSBBCZQEPEA-UHFFFAOYSA-N

>  <name>  (580) 
C15044-P239

>  <HIPPO Pose ID>  (580) 
367303

>  <Energy>  (580) 
19.483202

>  <exports>  (580) 
['/opt/xchem-fragalysis-2/maxwin/BulkDock/OUTPUTS/openbind_a71ev2a_c1_knitwork_impure_165VXJF.sdf', '/opt/xchem-fragalysis-2/maxwin/BulkDock/OUTPUTS/openbind_a71ev2a_c1_knitwork_impure_1B07QS4.sdf', '/opt/xchem-fragalysis-2/maxwin/BulkDock/OUTPUTS/openbind_a71ev2a_c1_knitwork_impure_1B07X5R.sdf', '/opt/xchem-fragalysis-2/maxwin/openbind-hippo/a71ev2a/openbind_a71ev2a_c1_scaffold_products.sdf', '/opt/xchem-fragalysis-2/maxwin/openbind-hippo/a71ev2a/cycle_01/bulkdock/openbind_a71ev2a_c1_scaffold_products.sdf', '/opt/xchem-fragalysis-2/maxwin/openbind-hippo/a71ev2a/cycle_01/bulkdock/openbind_a71ev2a_c1_scaffolds.sdf']

>  <fragmenstein_runtime>  (580) 
5.630044

$$$$
C15048-P239
     RDKit          3D

 16 16  0  0  0  0  0  0  0  0999 V2000
    8.3584   15.9084   26.7390 C   0  0  0  0  0  0  0  0  0  0  0  0
    7.6206   14.5741   26.6651 C   0  0  0  0  0  0  0  0  0  0  0  0
    7.8180   13.8613   25.2999 C   0  0  2  0  0  0  0  0  0  0  0  0
    6.8864   14.5083   24.3497 N   0  0  0  0  0  0  0  0  0  0  0  0
    7.3124   14.4670   22.7269 S   0  0  0  0  0  0  0  0  0  0  0  0
    8.4498   15.3402   22.5829 O   0  0  0  0  0  0  0  0  0  0  0  0
    7.3212   13.1099   22.2473 O   0  0  0  0  0  0  0  0  0  0  0  0
    5.9505   15.2339   22.1173 N   0  0  0  0  0  0  0  0  0  0  0  0
    5.7474   16.6092   22.5769 C   0  0  0  0  0  0  0  0  0  0  0  0
    4.7087   14.4425   22.0835 C   0  0  0  0  0  0  0  0  0  0  0  0
    7.6006   12.3612   25.4102 C   0  0  0  0  0  0  0  0  0  0  0  0
    8.4485   11.4947   24.7083 C   0  0  0  0  0  0  0  0  0  0  0  0
    8.2457   10.1269   24.8006 C   0  0  0  0  0  0  0  0  0  0  0  0
    7.2743    9.5636   25.5510 N   0  0  0  0  0  0  0  0  0  0  0  0
    6.4484   10.4070   26.2008 C   0  0  0  0  0  0  0  0  0  0  0  0
    6.5653   11.7896   26.1600 C   0  0  0  0  0  0  0  0  0  0  0  0
  1  2  1  0
  3  2  1  1
  3  4  1  0
  4  5  1  0
  5  6  2  0
  5  7  2  0
  5  8  1  0
  8  9  1  0
  8 10  1  0
  3 11  1  0
 11 12  2  0
 12 13  1  0
 13 14  2  0
 14 15  1  0
 15 16  2  0
 16 11  1  0
M  END
>  <ref_pdb>  (581) 
A3920a

>  <subsites>  (581) 
1 - Active Site

>  <HIPPO Compound ID>  (581) 
8165

>  <energy_score>  (581) 
-34.186142

>  <fragmenstein_mode>  (581) 
expansion

>  <scratch_subdir>  (581) 
/opt/xchem-fragalysis-2/maxwin/BulkDock/SCRATCH/512026/C15048-P239

>  <smiles>  (581) 
CC[C@H](NS(=O)(=O)N(C)C)c1ccncc1

>  <alias>  (581) 
C15048-P239

>  <ref_mols>  (581) 
A0719a,A3920a

>  <inspiration_score>  (581) 
None

>  <tags>  (581) 
BulkDock Fragalysis export,fragmenstein_placed,openbind_a71ev2a_c1_knitwork_impure,openbind_a71ev2a_c1_scaffolds

>  <fragmenstein_outcome>  (581) 
acceptable

>  <fragmenstein_error>  (581) 


>  <distance_score>  (581) 
0.800033

>  <inchikey>  (581) 
SEVSZWOINVGPQI-UHFFFAOYSA-N

>  <name>  (581) 
C15048-P239

>  <HIPPO Pose ID>  (581) 
367306

>  <Energy>  (581) 
-172.549785

>  <exports>  (581) 
['/opt/xchem-fragalysis-2/maxwin/BulkDock/OUTPUTS/openbind_a71ev2a_c1_knitwork_impure_165VXJF.sdf', '/opt/xchem-fragalysis-2/maxwin/BulkDock/OUTPUTS/openbind_a71ev2a_c1_knitwork_impure_1B07QS4.sdf', '/opt/xchem-fragalysis-2/maxwin/BulkDock/OUTPUTS/openbind_a71ev2a_c1_knitwork_impure_1B07X5R.sdf', '/opt/xchem-fragalysis-2/maxwin/openbind-hippo/a71ev2a/openbind_a71ev2a_c1_scaffold_products.sdf', '/opt/xchem-fragalysis-2/maxwin/openbind-hippo/a71ev2a/cycle_01/bulkdock/openbind_a71ev2a_c1_scaffold_products.sdf', '/opt/xchem-fragalysis-2/maxwin/openbind-hippo/a71ev2a/cycle_01/bulkdock/openbind_a71ev2a_c1_scaffolds.sdf']

>  <fragmenstein_runtime>  (581) 
9.440508

$$$$
C15051-P239
     RDKit          3D

 14 14  0  0  0  0  0  0  0  0999 V2000
    8.1394   14.8345   25.1334 C   0  0  0  0  0  0  0  0  0  0  0  0
    8.7676   13.5086   24.6788 C   0  0  2  0  0  0  0  0  0  0  0  0
   10.0769   13.4521   25.2625 O   0  0  0  0  0  0  0  0  0  0  0  0
    8.7610   13.5478   23.1345 C   0  0  0  0  0  0  0  0  0  0  0  0
    7.7814   13.1975   22.4631 O   0  0  0  0  0  0  0  0  0  0  0  0
    9.9992   14.1351   22.4911 C   0  0  0  0  0  0  0  0  0  0  0  0
   10.7125   14.9116   23.3696 F   0  0  0  0  0  0  0  0  0  0  0  0
    9.6873   14.9646   21.4569 F   0  0  0  0  0  0  0  0  0  0  0  0
    8.0266   12.2631   25.1628 C   0  0  0  0  0  0  0  0  0  0  0  0
    6.9231   12.3276   26.0177 C   0  0  0  0  0  0  0  0  0  0  0  0
    6.2973   11.1535   26.4211 C   0  0  0  0  0  0  0  0  0  0  0  0
    6.7774    9.9400   25.9601 C   0  0  0  0  0  0  0  0  0  0  0  0
    7.8796    9.9451   25.1238 C   0  0  0  0  0  0  0  0  0  0  0  0
    8.5174   11.0684   24.7362 N   0  0  0  0  0  0  0  0  0  0  0  0
  2  1  1  1
  2  3  1  0
  2  4  1  0
  4  5  2  0
  4  6  1  0
  6  7  1  0
  6  8  1  0
  2  9  1  0
  9 10  2  0
 10 11  1  0
 11 12  2  0
 12 13  1  0
 13 14  2  0
 14  9  1  0
M  END
>  <ref_pdb>  (582) 
A3920a

>  <subsites>  (582) 
1 - Active Site

>  <HIPPO Compound ID>  (582) 
27907

>  <energy_score>  (582) 
-15.837759

>  <fragmenstein_mode>  (582) 
expansion

>  <scratch_subdir>  (582) 
/opt/xchem-fragalysis-2/maxwin/BulkDock/SCRATCH/512026/C15051-P239

>  <smiles>  (582) 
C[C@](O)(C(=O)C(F)F)c1ccccn1

>  <alias>  (582) 
C15051-P239

>  <ref_mols>  (582) 
A0719a,A3920a

>  <inspiration_score>  (582) 
None

>  <tags>  (582) 
BulkDock Fragalysis export,fragmenstein_placed,openbind_a71ev2a_c1_knitwork_impure,openbind_a71ev2a_c1_scaffolds

>  <fragmenstein_outcome>  (582) 
acceptable

>  <fragmenstein_error>  (582) 


>  <distance_score>  (582) 
0.612539

>  <inchikey>  (582) 
QYTMWYMZVFYJAW-UHFFFAOYSA-N

>  <name>  (582) 
C15051-P239

>  <HIPPO Pose ID>  (582) 
367309

>  <Energy>  (582) 
86.802915

>  <exports>  (582) 
['/opt/xchem-fragalysis-2/maxwin/BulkDock/OUTPUTS/openbind_a71ev2a_c1_knitwork_impure_165VXJF.sdf', '/opt/xchem-fragalysis-2/maxwin/BulkDock/OUTPUTS/openbind_a71ev2a_c1_knitwork_impure_1B07QS4.sdf', '/opt/xchem-fragalysis-2/maxwin/BulkDock/OUTPUTS/openbind_a71ev2a_c1_knitwork_impure_1B07X5R.sdf', '/opt/xchem-fragalysis-2/maxwin/openbind-hippo/a71ev2a/openbind_a71ev2a_c1_scaffold_products.sdf', '/opt/xchem-fragalysis-2/maxwin/openbind-hippo/a71ev2a/cycle_01/bulkdock/openbind_a71ev2a_c1_scaffold_products.sdf', '/opt/xchem-fragalysis-2/maxwin/openbind-hippo/a71ev2a/cycle_01/bulkdock/openbind_a71ev2a_c1_scaffolds.sdf']

>  <fragmenstein_runtime>  (582) 
0.715373

$$$$
C15065-P239
     RDKit          3D

 13 13  0  0  0  0  0  0  0  0999 V2000
   11.9726   15.2078   22.9257 C   0  0  0  0  0  0  0  0  0  0  0  0
   11.0263   14.3347   23.5322 O   0  0  0  0  0  0  0  0  0  0  0  0
    9.7575   14.4232   22.8804 C   0  0  0  0  0  0  0  0  0  0  0  0
    8.8881   13.2221   23.2630 C   0  0  2  0  0  0  0  0  0  0  0  0
    7.7062   13.1845   22.4480 O   0  0  0  0  0  0  0  0  0  0  0  0
    8.4282   13.2715   24.7165 C   0  0  0  0  0  0  0  0  0  0  0  0
    8.4835   14.2898   25.4060 O   0  0  0  0  0  0  0  0  0  0  0  0
    7.7443   12.0859   25.2907 C   0  0  0  0  0  0  0  0  0  0  0  0
    6.7797   12.2980   26.2820 C   0  0  0  0  0  0  0  0  0  0  0  0
    6.0764   11.2213   26.8094 C   0  0  0  0  0  0  0  0  0  0  0  0
    6.3764    9.9576   26.3396 C   0  0  0  0  0  0  0  0  0  0  0  0
    7.3245    9.7085   25.4105 N   0  0  0  0  0  0  0  0  0  0  0  0
    7.9834   10.7792   24.8922 C   0  0  0  0  0  0  0  0  0  0  0  0
  1  2  1  0
  2  3  1  0
  3  4  1  0
  4  5  1  6
  4  6  1  0
  6  7  2  0
  6  8  1  0
  8  9  2  0
  9 10  1  0
 10 11  2  0
 11 12  1  0
 12 13  2  0
 13  8  1  0
M  END
>  <ref_pdb>  (583) 
A3920a

>  <subsites>  (583) 
1 - Active Site

>  <HIPPO Compound ID>  (583) 
10333

>  <energy_score>  (583) 
-22.774291

>  <fragmenstein_mode>  (583) 
expansion

>  <scratch_subdir>  (583) 
/opt/xchem-fragalysis-2/maxwin/BulkDock/SCRATCH/512026/C15065-P239

>  <smiles>  (583) 
COC[C@H](O)C(=O)c1cccnc1

>  <alias>  (583) 
C15065-P239

>  <ref_mols>  (583) 
A0719a,A3920a

>  <inspiration_score>  (583) 
None

>  <tags>  (583) 
BulkDock Fragalysis export,fragmenstein_placed,openbind_a71ev2a_c1_knitwork_impure,openbind_a71ev2a_c1_scaffolds

>  <fragmenstein_outcome>  (583) 
acceptable

>  <fragmenstein_error>  (583) 


>  <distance_score>  (583) 
0.816567

>  <inchikey>  (583) 
MLNMURZXNDQHPB-UHFFFAOYSA-N

>  <name>  (583) 
C15065-P239

>  <HIPPO Pose ID>  (583) 
367324

>  <Energy>  (583) 
79.489569

>  <exports>  (583) 
['/opt/xchem-fragalysis-2/maxwin/BulkDock/OUTPUTS/openbind_a71ev2a_c1_knitwork_impure_165VXJF.sdf', '/opt/xchem-fragalysis-2/maxwin/BulkDock/OUTPUTS/openbind_a71ev2a_c1_knitwork_impure_1B07QS4.sdf', '/opt/xchem-fragalysis-2/maxwin/BulkDock/OUTPUTS/openbind_a71ev2a_c1_knitwork_impure_1B07X5R.sdf', '/opt/xchem-fragalysis-2/maxwin/openbind-hippo/a71ev2a/openbind_a71ev2a_c1_scaffold_products.sdf', '/opt/xchem-fragalysis-2/maxwin/openbind-hippo/a71ev2a/cycle_01/bulkdock/openbind_a71ev2a_c1_scaffold_products.sdf', '/opt/xchem-fragalysis-2/maxwin/openbind-hippo/a71ev2a/cycle_01/bulkdock/openbind_a71ev2a_c1_scaffolds.sdf']

>  <fragmenstein_runtime>  (583) 
1.062307

$$$$
C15066-P239
     RDKit          3D

 15 15  0  0  0  0  0  0  0  0999 V2000
   12.1473   15.8456   21.6836 C   0  0  0  0  0  0  0  0  0  0  0  0
   12.0866   14.7657   22.7481 C   0  0  0  0  0  0  0  0  0  0  0  0
   10.7620   14.6753   23.5092 C   0  0  0  0  0  0  0  0  0  0  0  0
    9.5369   14.4454   22.6172 C   0  0  2  0  0  0  0  0  0  0  0  0
    8.8710   15.7443   22.1745 C   0  0  0  0  0  0  0  0  0  0  0  0
    8.4422   13.5548   23.2053 C   0  0  0  0  0  0  0  0  0  0  0  0
    7.7478   12.8836   22.4295 O   0  0  0  0  0  0  0  0  0  0  0  0
    8.0374   13.6530   24.6881 C   0  0  2  0  0  0  0  0  0  0  0  0
    8.9178   14.2397   25.6176 O   0  0  0  0  0  0  0  0  0  0  0  0
    7.5507   12.3514   25.2917 C   0  0  0  0  0  0  0  0  0  0  0  0
    6.5593   12.3943   26.2830 C   0  0  0  0  0  0  0  0  0  0  0  0
    6.0258   11.2197   26.7962 C   0  0  0  0  0  0  0  0  0  0  0  0
    6.5192   10.0228   26.3193 C   0  0  0  0  0  0  0  0  0  0  0  0
    7.5147    9.9273   25.4146 N   0  0  0  0  0  0  0  0  0  0  0  0
    8.0047   11.0905   24.9140 C   0  0  0  0  0  0  0  0  0  0  0  0
  1  2  1  0
  2  3  1  0
  3  4  1  0
  4  5  1  1
  4  6  1  0
  6  7  2  0
  6  8  1  0
  8  9  1  1
  8 10  1  0
 10 11  2  0
 11 12  1  0
 12 13  2  0
 13 14  1  0
 14 15  2  0
 15 10  1  0
M  END
>  <ref_pdb>  (584) 
A3920a

>  <subsites>  (584) 
1 - Active Site

>  <HIPPO Compound ID>  (584) 
87026

>  <energy_score>  (584) 
-19.734091

>  <fragmenstein_mode>  (584) 
expansion

>  <scratch_subdir>  (584) 
/opt/xchem-fragalysis-2/maxwin/BulkDock/SCRATCH/512026/C15066-P239

>  <smiles>  (584) 
CCC[C@H](C)C(=O)[C@H](O)c1cccnc1

>  <alias>  (584) 
C15066-P239

>  <ref_mols>  (584) 
A0719a,A3920a

>  <inspiration_score>  (584) 
None

>  <tags>  (584) 
BulkDock Fragalysis export,fragmenstein_placed,openbind_a71ev2a_c1_knitwork_impure,openbind_a71ev2a_c1_scaffolds

>  <fragmenstein_outcome>  (584) 
acceptable

>  <fragmenstein_error>  (584) 


>  <distance_score>  (584) 
0.972675

>  <inchikey>  (584) 
CWSPXHPREHEYCE-UHFFFAOYSA-N

>  <name>  (584) 
C15066-P239

>  <HIPPO Pose ID>  (584) 
367325

>  <Energy>  (584) 
63.632819

>  <exports>  (584) 
['/opt/xchem-fragalysis-2/maxwin/BulkDock/OUTPUTS/openbind_a71ev2a_c1_knitwork_impure_165VXJF.sdf', '/opt/xchem-fragalysis-2/maxwin/BulkDock/OUTPUTS/openbind_a71ev2a_c1_knitwork_impure_1B07QS4.sdf', '/opt/xchem-fragalysis-2/maxwin/BulkDock/OUTPUTS/openbind_a71ev2a_c1_knitwork_impure_1B07X5R.sdf', '/opt/xchem-fragalysis-2/maxwin/openbind-hippo/a71ev2a/openbind_a71ev2a_c1_scaffold_products.sdf', '/opt/xchem-fragalysis-2/maxwin/openbind-hippo/a71ev2a/cycle_01/bulkdock/openbind_a71ev2a_c1_scaffold_products.sdf', '/opt/xchem-fragalysis-2/maxwin/openbind-hippo/a71ev2a/cycle_01/bulkdock/openbind_a71ev2a_c1_scaffolds.sdf']

>  <fragmenstein_runtime>  (584) 
1.732979

$$$$
C8152-P239
     RDKit          3D

 14 14  0  0  0  0  0  0  0  0999 V2000
    9.4913    8.8751   23.6125 C   0  0  0  0  0  0  0  0  0  0  0  0
    9.5982   10.3678   23.4021 C   0  0  0  0  0  0  0  0  0  0  0  0
    8.3337   10.9772   23.6770 O   0  0  0  0  0  0  0  0  0  0  0  0
    8.2644   11.7421   24.7948 C   0  0  0  0  0  0  0  0  0  0  0  0
    7.6695   11.3464   25.7920 O   0  0  0  0  0  0  0  0  0  0  0  0
    9.0079   13.0861   24.6951 C   0  0  2  0  0  0  0  0  0  0  0  0
    8.4213   14.0707   25.5567 O   0  0  0  0  0  0  0  0  0  0  0  0
    9.0724   13.6476   23.2559 C   0  0  0  0  0  0  0  0  0  0  0  0
    9.4672   15.0726   23.2284 N   0  0  0  0  0  0  0  0  0  0  0  0
   10.8166   15.3418   23.7529 C   0  0  0  0  0  0  0  0  0  0  0  0
   11.9503   14.8865   22.8364 C   0  0  0  0  0  0  0  0  0  0  0  0
   11.8105   15.5127   21.4556 C   0  0  0  0  0  0  0  0  0  0  0  0
   10.4204   15.2496   20.8930 C   0  0  0  0  0  0  0  0  0  0  0  0
    9.3246   15.6600   21.8800 C   0  0  0  0  0  0  0  0  0  0  0  0
  1  2  1  0
  2  3  1  0
  3  4  1  0
  4  5  2  0
  4  6  1  0
  6  7  1  1
  6  8  1  0
  8  9  1  0
  9 10  1  0
 10 11  1  0
 11 12  1  0
 12 13  1  0
 13 14  1  0
 14  9  1  0
M  END
>  <ref_pdb>  (585) 
A3920a

>  <subsites>  (585) 
1 - Active Site

>  <HIPPO Compound ID>  (585) 
5168

>  <energy_score>  (585) 
-15.446097

>  <fragmenstein_mode>  (585) 
expansion

>  <scratch_subdir>  (585) 
/opt/xchem-fragalysis-2/maxwin/BulkDock/SCRATCH/512026/C8152-P239

>  <smiles>  (585) 
CCOC(=O)[C@H](O)CN1CCCCC1

>  <alias>  (585) 
C8152-P239

>  <ref_mols>  (585) 
A0719a,A3920a

>  <inspiration_score>  (585) 
None

>  <tags>  (585) 
BulkDock Fragalysis export,fragmenstein_placed,openbind_a71ev2a_c1_knitwork_impure,openbind_a71ev2a_c1_scaffolds

>  <fragmenstein_outcome>  (585) 
acceptable

>  <fragmenstein_error>  (585) 


>  <distance_score>  (585) 
0.99667

>  <inchikey>  (585) 
DSRVXZMXCPNZDO-UHFFFAOYSA-N

>  <name>  (585) 
C8152-P239

>  <HIPPO Pose ID>  (585) 
367347

>  <Energy>  (585) 
64.599991

>  <exports>  (585) 
['/opt/xchem-fragalysis-2/maxwin/BulkDock/OUTPUTS/openbind_a71ev2a_c1_knitwork_impure_165VXJF.sdf', '/opt/xchem-fragalysis-2/maxwin/BulkDock/OUTPUTS/openbind_a71ev2a_c1_knitwork_impure_1B07QS4.sdf', '/opt/xchem-fragalysis-2/maxwin/BulkDock/OUTPUTS/openbind_a71ev2a_c1_knitwork_impure_1B07X5R.sdf', '/opt/xchem-fragalysis-2/maxwin/openbind-hippo/a71ev2a/openbind_a71ev2a_c1_scaffold_products.sdf', '/opt/xchem-fragalysis-2/maxwin/openbind-hippo/a71ev2a/cycle_01/bulkdock/openbind_a71ev2a_c1_scaffold_products.sdf', '/opt/xchem-fragalysis-2/maxwin/openbind-hippo/a71ev2a/cycle_01/bulkdock/openbind_a71ev2a_c1_scaffolds.sdf']

>  <fragmenstein_runtime>  (585) 
2.012904

$$$$
C6115-P290
     RDKit          3D

 14 16  0  0  0  0  0  0  0  0999 V2000
    6.7484   12.9310   25.5054 C   0  0  0  0  0  0  0  0  0  0  0  0
    5.5683   13.1249   26.2375 C   0  0  0  0  0  0  0  0  0  0  0  0
    4.8600   12.0106   26.6328 C   0  0  0  0  0  0  0  0  0  0  0  0
    5.2920   10.7350   26.2963 C   0  0  0  0  0  0  0  0  0  0  0  0
    6.4381   10.5500   25.5491 C   0  0  0  0  0  0  0  0  0  0  0  0
    7.2253   11.6472   25.1607 C   0  0  0  0  0  0  0  0  0  0  0  0
    8.4086   11.4708   24.4794 N   0  0  0  0  0  0  0  0  0  0  0  0
    8.9263   10.1530   24.1398 C   0  0  0  0  0  0  0  0  0  0  0  0
   10.2030   10.4285   23.3743 C   0  0  0  0  0  0  0  0  0  0  0  0
   10.6304   11.8174   23.8280 C   0  0  0  0  0  0  0  0  0  0  0  0
    9.3229   12.5393   24.1095 C   0  0  0  0  0  0  0  0  0  0  0  0
    4.3774    9.7424   26.6629 N   0  0  0  0  0  0  0  0  0  0  0  0
    3.5338   10.3849   27.6670 C   0  0  0  0  0  0  0  0  0  0  0  0
    3.5676   11.9020   27.3717 C   0  0  0  0  0  0  0  0  0  0  0  0
  1  2  2  0
  2  3  1  0
  3  4  2  0
  4  5  1  0
  5  6  2  0
  6  7  1  0
  7  8  1  0
  8  9  1  0
  9 10  1  0
 10 11  1  0
  4 12  1  0
 12 13  1  0
 13 14  1  0
  6  1  1  0
 11  7  1  0
 14  3  1  0
M  END
>  <ref_pdb>  (586) 
A4306a

>  <subsites>  (586) 
1 - Active Site

>  <HIPPO Compound ID>  (586) 
27906

>  <energy_score>  (586) 
-21.85154

>  <fragmenstein_mode>  (586) 
expansion

>  <scratch_subdir>  (586) 
/opt/xchem-fragalysis-2/maxwin/BulkDock/SCRATCH/512026/C6115-P290

>  <smiles>  (586) 
c1cc2c(cc1N1CCCC1)NCC2

>  <alias>  (586) 
C6115-P290

>  <ref_mols>  (586) 
A4306a,A1778a

>  <inspiration_score>  (586) 
None

>  <tags>  (586) 
BulkDock Fragalysis export,fragmenstein_placed,openbind_a71ev2a_c1_knitwork_impure,openbind_a71ev2a_c1_scaffolds

>  <fragmenstein_outcome>  (586) 
acceptable

>  <fragmenstein_error>  (586) 


>  <distance_score>  (586) 
0.801932

>  <inchikey>  (586) 
SGWHFDPWZAGZRG-UHFFFAOYSA-N

>  <name>  (586) 
C6115-P290

>  <HIPPO Pose ID>  (586) 
367419

>  <Energy>  (586) 
30.41787

>  <exports>  (586) 
['/opt/xchem-fragalysis-2/maxwin/BulkDock/OUTPUTS/openbind_a71ev2a_c1_knitwork_impure_165VXJF.sdf', '/opt/xchem-fragalysis-2/maxwin/BulkDock/OUTPUTS/openbind_a71ev2a_c1_knitwork_impure_1B07QS4.sdf', '/opt/xchem-fragalysis-2/maxwin/BulkDock/OUTPUTS/openbind_a71ev2a_c1_knitwork_impure_1B07X5R.sdf', '/opt/xchem-fragalysis-2/maxwin/openbind-hippo/a71ev2a/openbind_a71ev2a_c1_scaffold_products.sdf', '/opt/xchem-fragalysis-2/maxwin/openbind-hippo/a71ev2a/cycle_01/bulkdock/openbind_a71ev2a_c1_scaffold_products.sdf', '/opt/xchem-fragalysis-2/maxwin/openbind-hippo/a71ev2a/cycle_01/bulkdock/openbind_a71ev2a_c1_scaffolds.sdf']

>  <fragmenstein_runtime>  (586) 
6.378078

$$$$
C1392-P557
     RDKit          3D

 17 17  0  0  0  0  0  0  0  0999 V2000
   10.7172   12.7763   23.9461 C   0  0  0  0  0  0  0  0  0  0  0  0
    9.3134   13.3319   24.2902 C   0  0  0  0  0  0  0  0  0  0  0  0
    9.4924   14.5612   25.2111 C   0  0  0  0  0  0  0  0  0  0  0  0
    8.6522   13.7284   22.9316 C   0  0  0  0  0  0  0  0  0  0  0  0
    7.7196   13.1816   22.4894 O   0  0  0  0  0  0  0  0  0  0  0  0
    9.5379   14.8529   22.3298 N   0  0  0  0  0  0  0  0  0  0  0  0
    9.5143   15.4687   21.0194 C   0  0  0  0  0  0  0  0  0  0  0  0
   10.9166   15.5073   20.4112 C   0  0  0  0  0  0  0  0  0  0  0  0
   10.9213   16.1161   19.2156 F   0  0  0  0  0  0  0  0  0  0  0  0
   11.7561   16.1793   21.2417 F   0  0  0  0  0  0  0  0  0  0  0  0
   11.4403   14.2774   20.2514 F   0  0  0  0  0  0  0  0  0  0  0  0
    8.4940   12.2485   25.0831 C   0  0  1  0  0  0  0  0  0  0  0  0
    7.1032   12.7075   25.5560 C   0  0  0  0  0  0  0  0  0  0  0  0
    6.4750   11.6779   26.4929 C   0  0  0  0  0  0  0  0  0  0  0  0
    6.5499   10.2532   25.9597 C   0  0  0  0  0  0  0  0  0  0  0  0
    7.8549    9.8822   25.4295 N   0  0  0  0  0  0  0  0  0  0  0  0
    8.3886   10.8520   24.4654 C   0  0  0  0  0  0  0  0  0  0  0  0
  1  2  1  0
  2  3  1  0
  2  4  1  0
  4  5  2  0
  4  6  1  0
  6  7  1  0
  7  8  1  0
  8  9  1  0
  8 10  1  0
  8 11  1  0
 12  2  1  6
 12 13  1  0
 13 14  1  0
 14 15  1  0
 15 16  1  0
 16 17  1  0
 17 12  1  0
M  END
>  <ref_pdb>  (587) 
A5079a

>  <subsites>  (587) 
1 - Active Site

>  <HIPPO Compound ID>  (587) 
20947

>  <energy_score>  (587) 
-10.173553

>  <fragmenstein_mode>  (587) 
expansion

>  <scratch_subdir>  (587) 
/opt/xchem-fragalysis-2/maxwin/BulkDock/SCRATCH/512066/C1392-P557

>  <smiles>  (587) 
CC(C)(C(=O)NCC(F)(F)F)[C@H]1CCCNC1

>  <alias>  (587) 
C1392-P557

>  <ref_mols>  (587) 
A1778a,A5079a

>  <inspiration_score>  (587) 
None

>  <tags>  (587) 
BulkDock Fragalysis export,fragmenstein_placed,openbind_a71ev2a_c1_knitwork_impure,openbind_a71ev2a_c1_scaffolds

>  <fragmenstein_outcome>  (587) 
acceptable

>  <fragmenstein_error>  (587) 


>  <distance_score>  (587) 
0.907826

>  <inchikey>  (587) 
OTUZIMGZAJGPTD-UHFFFAOYSA-N

>  <name>  (587) 
C1392-P557

>  <HIPPO Pose ID>  (587) 
367695

>  <Energy>  (587) 
60.905307

>  <exports>  (587) 
['/opt/xchem-fragalysis-2/maxwin/BulkDock/OUTPUTS/openbind_a71ev2a_c1_knitwork_impure_165VXJF.sdf', '/opt/xchem-fragalysis-2/maxwin/BulkDock/OUTPUTS/openbind_a71ev2a_c1_knitwork_impure_1B07QS4.sdf', '/opt/xchem-fragalysis-2/maxwin/BulkDock/OUTPUTS/openbind_a71ev2a_c1_knitwork_impure_1B07X5R.sdf', '/opt/xchem-fragalysis-2/maxwin/openbind-hippo/a71ev2a/openbind_a71ev2a_c1_scaffold_products.sdf', '/opt/xchem-fragalysis-2/maxwin/openbind-hippo/a71ev2a/cycle_01/bulkdock/openbind_a71ev2a_c1_scaffold_products.sdf', '/opt/xchem-fragalysis-2/maxwin/openbind-hippo/a71ev2a/cycle_01/bulkdock/openbind_a71ev2a_c1_scaffolds.sdf']

>  <fragmenstein_runtime>  (587) 
6.426447

$$$$
C1394-P557
     RDKit          3D

 18 18  0  0  0  0  0  0  0  0999 V2000
   12.1578   14.6054   23.5889 C   0  0  0  0  0  0  0  0  0  0  0  0
   12.2605   15.5874   22.0817 S   0  0  0  0  0  0  0  0  0  0  0  0
   10.8296   14.9264   21.1573 C   0  0  0  0  0  0  0  0  0  0  0  0
    9.4542   15.4131   21.6704 C   0  0  0  0  0  0  0  0  0  0  0  0
    9.3668   16.9264   21.6720 C   0  0  0  0  0  0  0  0  0  0  0  0
    8.3841   14.9409   20.7191 C   0  0  0  0  0  0  0  0  0  0  0  0
    9.1537   14.8239   22.9693 N   0  0  0  0  0  0  0  0  0  0  0  0
    8.4777   13.4748   23.3314 C   0  0  0  0  0  0  0  0  0  0  0  0
    7.9888   12.6646   22.6453 O   0  0  0  0  0  0  0  0  0  0  0  0
    8.6244   13.2408   24.8444 C   0  0  0  0  0  0  0  0  0  0  0  0
    9.8546   12.6985   25.1095 F   0  0  0  0  0  0  0  0  0  0  0  0
    8.6114   14.4145   25.5309 F   0  0  0  0  0  0  0  0  0  0  0  0
    7.4759   12.3064   25.2778 C   0  0  2  0  0  0  0  0  0  0  0  0
    6.8616   12.5551   26.6496 C   0  0  0  0  0  0  0  0  0  0  0  0
    5.7095   11.5826   26.9036 C   0  0  0  0  0  0  0  0  0  0  0  0
    5.9965   10.1499   26.4549 C   0  0  0  0  0  0  0  0  0  0  0  0
    7.3718    9.9198   26.0551 N   0  0  0  0  0  0  0  0  0  0  0  0
    7.8524   10.8381   25.0332 C   0  0  0  0  0  0  0  0  0  0  0  0
  1  2  1  0
  2  3  1  0
  3  4  1  0
  4  5  1  0
  4  6  1  0
  4  7  1  0
  7  8  1  0
  8  9  2  0
  8 10  1  0
 10 11  1  0
 10 12  1  0
 13 10  1  1
 13 14  1  0
 14 15  1  0
 15 16  1  0
 16 17  1  0
 17 18  1  0
 18 13  1  0
M  END
>  <ref_pdb>  (588) 
A5079a

>  <subsites>  (588) 
1 - Active Site

>  <HIPPO Compound ID>  (588) 
15351

>  <energy_score>  (588) 
-7.808253

>  <fragmenstein_mode>  (588) 
expansion

>  <scratch_subdir>  (588) 
/opt/xchem-fragalysis-2/maxwin/BulkDock/SCRATCH/512066/C1394-P557

>  <smiles>  (588) 
CSCC(C)(C)NC(=O)C(F)(F)[C@@H]1CCCNC1

>  <alias>  (588) 
C1394-P557

>  <ref_mols>  (588) 
A1778a,A5079a

>  <inspiration_score>  (588) 
None

>  <tags>  (588) 
BulkDock Fragalysis export,fragmenstein_placed,openbind_a71ev2a_c1_knitwork_impure,openbind_a71ev2a_c1_scaffolds

>  <fragmenstein_outcome>  (588) 
acceptable

>  <fragmenstein_error>  (588) 


>  <distance_score>  (588) 
0.964364

>  <inchikey>  (588) 
YWXZMUQGZGJALN-UHFFFAOYSA-N

>  <name>  (588) 
C1394-P557

>  <HIPPO Pose ID>  (588) 
367697

>  <Energy>  (588) 
102.72786

>  <exports>  (588) 
['/opt/xchem-fragalysis-2/maxwin/BulkDock/OUTPUTS/openbind_a71ev2a_c1_knitwork_impure_165VXJF.sdf', '/opt/xchem-fragalysis-2/maxwin/BulkDock/OUTPUTS/openbind_a71ev2a_c1_knitwork_impure_1B07QS4.sdf', '/opt/xchem-fragalysis-2/maxwin/BulkDock/OUTPUTS/openbind_a71ev2a_c1_knitwork_impure_1B07X5R.sdf', '/opt/xchem-fragalysis-2/maxwin/openbind-hippo/a71ev2a/openbind_a71ev2a_c1_scaffold_products.sdf', '/opt/xchem-fragalysis-2/maxwin/openbind-hippo/a71ev2a/cycle_01/bulkdock/openbind_a71ev2a_c1_scaffold_products.sdf', '/opt/xchem-fragalysis-2/maxwin/openbind-hippo/a71ev2a/cycle_01/bulkdock/openbind_a71ev2a_c1_scaffolds.sdf']

>  <fragmenstein_runtime>  (588) 
5.880951

$$$$
C14594-P412
     RDKit          3D

 23 24  0  0  0  0  0  0  0  0999 V2000
    6.7265   -9.1399   11.0579 C   0  0  0  0  0  0  0  0  0  0  0  0
    7.8662   -8.4185   10.3321 C   0  0  0  0  0  0  0  0  0  0  0  0
    8.0736   -9.0602    8.9509 C   0  0  0  0  0  0  0  0  0  0  0  0
    8.8172   -8.1586    8.1169 O   0  0  0  0  0  0  0  0  0  0  0  0
    7.5239   -6.9399   10.1117 C   0  0  0  0  0  0  0  0  0  0  0  0
    6.7492   -6.7286    8.9471 O   0  0  0  0  0  0  0  0  0  0  0  0
    9.0559   -8.4164   11.1838 N   0  0  0  0  0  0  0  0  0  0  0  0
   10.1938   -9.4545   11.3176 C   0  0  0  0  0  0  0  0  0  0  0  0
   10.3924  -10.4097   10.7287 O   0  0  0  0  0  0  0  0  0  0  0  0
   11.0422   -8.7591   12.4215 N   0  0  0  0  0  0  0  0  0  0  0  0
   12.3005   -9.0667   12.9123 C   0  0  0  0  0  0  0  0  0  0  0  0
   13.0820  -10.0573   12.3375 C   0  0  0  0  0  0  0  0  0  0  0  0
   14.3372  -10.2737   12.8714 C   0  0  0  0  0  0  0  0  0  0  0  0
   14.8285   -9.5976   13.9317 N   0  0  0  0  0  0  0  0  0  0  0  0
   14.0248   -8.6698   14.4862 C   0  0  0  0  0  0  0  0  0  0  0  0
   14.4609   -7.9441   15.5745 O   0  0  0  0  0  0  0  0  0  0  0  0
   15.4412   -8.6116   16.3851 C   0  0  0  0  0  0  0  0  0  0  0  0
   14.7714   -9.6998   17.2389 C   0  0  0  0  0  0  0  0  0  0  0  0
   15.7322  -10.3030   18.2579 C   0  0  0  0  0  0  0  0  0  0  0  0
   16.3519   -9.2299   19.1464 C   0  0  0  0  0  0  0  0  0  0  0  0
   17.0268   -8.1432   18.3172 C   0  0  0  0  0  0  0  0  0  0  0  0
   16.0700   -7.5442   17.2923 C   0  0  0  0  0  0  0  0  0  0  0  0
   12.7818   -8.3351   13.9901 C   0  0  0  0  0  0  0  0  0  0  0  0
  1  2  1  0
  2  3  1  0
  3  4  1  0
  2  5  1  0
  5  6  1  0
  2  7  1  0
  7  8  1  0
  8  9  2  0
  8 10  1  0
 10 11  1  0
 11 12  2  0
 12 13  1  0
 13 14  2  0
 14 15  1  0
 15 16  1  0
 16 17  1  0
 17 18  1  0
 18 19  1  0
 19 20  1  0
 20 21  1  0
 21 22  1  0
 15 23  2  0
 23 11  1  0
 22 17  1  0
M  END
>  <ref_pdb>  (589) 
A4586a

>  <subsites>  (589) 
1 - Active Site,2 - A3977/A/202/1

>  <HIPPO Compound ID>  (589) 
7605

>  <energy_score>  (589) 
-17.808589

>  <fragmenstein_mode>  (589) 
expansion

>  <scratch_subdir>  (589) 
/opt/xchem-fragalysis-2/maxwin/BulkDock/SCRATCH/512066/C14594-P412

>  <smiles>  (589) 
CC(CO)(CO)NC(=O)Nc1ccnc(OC2CCCCC2)c1

>  <alias>  (589) 
C14594-P412

>  <ref_mols>  (589) 
A0395a,A4586a

>  <inspiration_score>  (589) 
None

>  <tags>  (589) 
BulkDock Fragalysis export,fragmenstein_placed,openbind_a71ev2a_c1_knitwork_impure,openbind_a71ev2a_c1_scaffolds

>  <fragmenstein_outcome>  (589) 
acceptable

>  <fragmenstein_error>  (589) 


>  <distance_score>  (589) 
0.713508

>  <inchikey>  (589) 
GHIJXTOSIYSZBD-UHFFFAOYSA-N

>  <name>  (589) 
C14594-P412

>  <HIPPO Pose ID>  (589) 
367885

>  <Energy>  (589) 
6.213841

>  <exports>  (589) 
['/opt/xchem-fragalysis-2/maxwin/BulkDock/OUTPUTS/openbind_a71ev2a_c1_knitwork_impure_165VXJF.sdf', '/opt/xchem-fragalysis-2/maxwin/BulkDock/OUTPUTS/openbind_a71ev2a_c1_knitwork_impure_1B07QS4.sdf', '/opt/xchem-fragalysis-2/maxwin/BulkDock/OUTPUTS/openbind_a71ev2a_c1_knitwork_impure_1B07X5R.sdf', '/opt/xchem-fragalysis-2/maxwin/openbind-hippo/a71ev2a/openbind_a71ev2a_c1_scaffold_products.sdf', '/opt/xchem-fragalysis-2/maxwin/openbind-hippo/a71ev2a/cycle_01/bulkdock/openbind_a71ev2a_c1_scaffold_products.sdf', '/opt/xchem-fragalysis-2/maxwin/openbind-hippo/a71ev2a/cycle_01/bulkdock/openbind_a71ev2a_c1_scaffolds.sdf']

>  <fragmenstein_runtime>  (589) 
18.686289

$$$$
C38619-P404
     RDKit          3D

 13 13  0  0  0  0  0  0  0  0999 V2000
    7.7641   10.9857   25.2058 C   0  0  0  0  0  0  0  0  0  0  0  0
    8.8692   10.8035   24.1949 C   0  0  0  0  0  0  0  0  0  0  0  0
    9.7034   12.0334   23.9064 C   0  0  0  0  0  0  0  0  0  0  0  0
   10.9338   11.9238   23.8873 O   0  0  0  0  0  0  0  0  0  0  0  0
    8.9982   13.3391   23.4784 C   0  0  1  0  0  0  0  0  0  0  0  0
    8.1379   14.0092   24.5416 C   0  0  0  0  0  0  0  0  0  0  0  0
   10.0275   14.2470   22.9505 N   0  0  0  0  0  0  0  0  0  0  0  0
    9.9543   14.6217   21.5426 C   0  0  0  0  0  0  0  0  0  0  0  0
   11.3150   14.9332   20.9526 C   0  0  0  0  0  0  0  0  0  0  0  0
   11.9437   16.0288   21.7825 C   0  0  0  0  0  0  0  0  0  0  0  0
   12.0864   15.5981   23.2266 C   0  0  0  0  0  0  0  0  0  0  0  0
   10.9438   14.8123   23.8224 C   0  0  0  0  0  0  0  0  0  0  0  0
   10.9073   14.6413   25.0450 O   0  0  0  0  0  0  0  0  0  0  0  0
  1  2  1  0
  2  3  1  0
  3  4  2  0
  3  5  1  0
  5  6  1  1
  5  7  1  0
  7  8  1  0
  8  9  1  0
  9 10  1  0
 10 11  1  0
 11 12  1  0
 12 13  2  0
 12  7  1  0
M  END
>  <ref_pdb>  (590) 
A4563a

>  <subsites>  (590) 
1 - Active Site

>  <HIPPO Compound ID>  (590) 
1328

>  <energy_score>  (590) 
-12.63281

>  <fragmenstein_mode>  (590) 
expansion

>  <scratch_subdir>  (590) 
/opt/xchem-fragalysis-2/maxwin/BulkDock/SCRATCH/512066/C38619-P404

>  <smiles>  (590) 
CCC(=O)[C@@H](C)N1CCCCC1=O

>  <alias>  (590) 
C38619-P404

>  <ref_mols>  (590) 
A4563a,A1779a

>  <inspiration_score>  (590) 
None

>  <tags>  (590) 
BulkDock Fragalysis export,fragmenstein_placed,openbind_a71ev2a_c1_knitwork_impure,openbind_a71ev2a_c1_scaffolds

>  <fragmenstein_outcome>  (590) 
acceptable

>  <fragmenstein_error>  (590) 


>  <distance_score>  (590) 
0.89787

>  <inchikey>  (590) 
QEAIPLSLYLEHLE-UHFFFAOYSA-N

>  <name>  (590) 
C38619-P404

>  <HIPPO Pose ID>  (590) 
368391

>  <Energy>  (590) 
19.594516

>  <exports>  (590) 
['/opt/xchem-fragalysis-2/maxwin/BulkDock/OUTPUTS/openbind_a71ev2a_c1_knitwork_impure_165VXJF.sdf', '/opt/xchem-fragalysis-2/maxwin/BulkDock/OUTPUTS/openbind_a71ev2a_c1_knitwork_impure_1B07QS4.sdf', '/opt/xchem-fragalysis-2/maxwin/BulkDock/OUTPUTS/openbind_a71ev2a_c1_knitwork_impure_1B07X5R.sdf', '/opt/xchem-fragalysis-2/maxwin/openbind-hippo/a71ev2a/openbind_a71ev2a_c1_scaffold_products.sdf', '/opt/xchem-fragalysis-2/maxwin/openbind-hippo/a71ev2a/cycle_01/bulkdock/openbind_a71ev2a_c1_scaffold_products.sdf', '/opt/xchem-fragalysis-2/maxwin/openbind-hippo/a71ev2a/cycle_01/bulkdock/openbind_a71ev2a_c1_scaffolds.sdf']

>  <fragmenstein_runtime>  (590) 
1.031325

$$$$
C7479-P278
     RDKit          3D

 23 24  0  0  0  0  0  0  0  0999 V2000
    2.2445   11.9678   19.0566 C   0  0  0  0  0  0  0  0  0  0  0  0
    3.4282   12.9104   19.2208 C   0  0  0  0  0  0  0  0  0  0  0  0
    4.0894   13.1266   17.8661 C   0  0  0  0  0  0  0  0  0  0  0  0
    3.0235   14.2172   19.7961 C   0  0  0  0  0  0  0  0  0  0  0  0
    2.0522   14.8858   19.1052 O   0  0  0  0  0  0  0  0  0  0  0  0
    1.9247   16.0597   19.7581 C   0  0  0  0  0  0  0  0  0  0  0  0
    2.7041   16.2069   20.8076 N   0  0  0  0  0  0  0  0  0  0  0  0
    3.3931   15.0050   20.8749 C   0  0  0  0  0  0  0  0  0  0  0  0
    4.3479   14.7170   21.9920 C   0  0  0  0  0  0  0  0  0  0  0  0
    5.5773   15.4653   21.7750 N   0  0  0  0  0  0  0  0  0  0  0  0
    7.0233   14.7446   22.2129 S   0  0  0  0  0  0  0  0  0  0  0  0
    6.8620   13.3759   21.7408 O   0  0  0  0  0  0  0  0  0  0  0  0
    7.9804   15.5344   21.4666 O   0  0  0  0  0  0  0  0  0  0  0  0
    6.9291   14.9347   23.7325 N   0  0  0  0  0  0  0  0  0  0  0  0
    8.2651   14.6217   24.4328 S   0  0  2  0  0  0  0  0  0  0  0  0
    8.0684   15.1892   26.1104 C   0  0  0  0  0  0  0  0  0  0  0  0
    9.5477   15.1434   24.0100 O   0  0  0  0  0  0  0  0  0  0  0  0
    8.4925   12.8426   24.6813 C   0  0  0  0  0  0  0  0  0  0  0  0
    9.3292   12.2256   23.5635 C   0  0  0  0  0  0  0  0  0  0  0  0
    9.4281   10.7048   23.5735 C   0  0  0  0  0  0  0  0  0  0  0  0
    8.2731    9.9208   24.1622 C   0  0  0  0  0  0  0  0  0  0  0  0
    7.3877   10.6378   25.1645 C   0  0  0  0  0  0  0  0  0  0  0  0
    7.1763   12.1107   24.8783 C   0  0  0  0  0  0  0  0  0  0  0  0
  1  2  1  0
  2  3  1  0
  2  4  1  0
  4  5  1  0
  5  6  1  0
  6  7  2  0
  7  8  1  0
  8  9  1  0
  9 10  1  0
 10 11  1  0
 11 12  2  0
 11 13  2  0
 11 14  1  0
 14 15  2  0
 15 16  1  1
 15 17  2  0
 15 18  1  0
 18 19  1  0
 19 20  1  0
 20 21  1  0
 21 22  1  0
 22 23  1  0
  8  4  2  0
 23 18  1  0
M  END
>  <ref_pdb>  (591) 
A4035a

>  <subsites>  (591) 
1 - Active Site

>  <HIPPO Compound ID>  (591) 
13612

>  <energy_score>  (591) 
-237.811669

>  <fragmenstein_mode>  (591) 
expansion

>  <scratch_subdir>  (591) 
/opt/xchem-fragalysis-2/maxwin/BulkDock/SCRATCH/512066/C7479-P278

>  <smiles>  (591) 
CC(C)c1ocnc1CNS(=O)(=O)N=[S@](C)(=O)C1CCCCC1

>  <alias>  (591) 
C7479-P278

>  <ref_mols>  (591) 
A3623a,A4035a

>  <inspiration_score>  (591) 
None

>  <tags>  (591) 
BulkDock Fragalysis export,fragmenstein_placed,openbind_a71ev2a_c1_knitwork_impure,openbind_a71ev2a_c1_scaffolds

>  <fragmenstein_outcome>  (591) 
acceptable

>  <fragmenstein_error>  (591) 


>  <distance_score>  (591) 
0.95954

>  <inchikey>  (591) 
NOLYSQFICWENKE-UHFFFAOYSA-N

>  <name>  (591) 
C7479-P278

>  <HIPPO Pose ID>  (591) 
368424

>  <Energy>  (591) 
-241.365936

>  <exports>  (591) 
['/opt/xchem-fragalysis-2/maxwin/BulkDock/OUTPUTS/openbind_a71ev2a_c1_knitwork_impure_165VXJF.sdf', '/opt/xchem-fragalysis-2/maxwin/BulkDock/OUTPUTS/openbind_a71ev2a_c1_knitwork_impure_1B07QS4.sdf', '/opt/xchem-fragalysis-2/maxwin/BulkDock/OUTPUTS/openbind_a71ev2a_c1_knitwork_impure_1B07X5R.sdf', '/opt/xchem-fragalysis-2/maxwin/openbind-hippo/a71ev2a/openbind_a71ev2a_c1_scaffold_products.sdf', '/opt/xchem-fragalysis-2/maxwin/openbind-hippo/a71ev2a/cycle_01/bulkdock/openbind_a71ev2a_c1_scaffold_products.sdf', '/opt/xchem-fragalysis-2/maxwin/openbind-hippo/a71ev2a/cycle_01/bulkdock/openbind_a71ev2a_c1_scaffolds.sdf']

>  <fragmenstein_runtime>  (591) 
5.623464

$$$$
C7646-P322
     RDKit          3D

 13 14  0  0  0  0  0  0  0  0999 V2000
    5.6293   15.6192   22.0424 N   0  0  0  0  0  0  0  0  0  0  0  0
    7.0060   14.7935   22.4995 S   0  0  0  0  0  0  0  0  0  0  0  0
    8.1409   15.5363   22.0165 O   0  0  0  0  0  0  0  0  0  0  0  0
    6.8148   13.4115   22.1232 O   0  0  0  0  0  0  0  0  0  0  0  0
    6.8521   15.0191   24.2810 C   0  0  0  0  0  0  0  0  0  0  0  0
    7.9661   14.3177   25.0391 C   0  0  0  0  0  0  0  0  0  0  0  0
    7.6387   12.8305   25.0929 C   0  0  0  0  0  0  0  0  0  0  0  0
    8.7726   11.9108   25.1087 N   0  0  0  0  0  0  0  0  0  0  0  0
    8.2216   10.5421   25.0365 C   0  0  0  0  0  0  0  0  0  0  0  0
    8.8291    9.8910   23.8588 C   0  0  2  0  0  0  0  0  0  0  0  0
   10.2235    9.4582   23.7181 C   0  0  0  0  0  0  0  0  0  0  0  0
    9.7792   10.8180   23.2293 C   0  0  2  0  0  0  0  0  0  0  0  0
    9.7093   12.0978   23.9744 C   0  0  0  0  0  0  0  0  0  0  0  0
  1  2  1  0
  2  3  2  0
  2  4  2  0
  2  5  1  0
  5  6  1  0
  6  7  1  0
  7  8  1  0
  8  9  1  0
 10  9  1  1
 10 11  1  0
 12 11  1  1
 12 13  1  0
 13  8  1  0
 12 10  1  0
M  END
>  <ref_pdb>  (592) 
A4351a

>  <subsites>  (592) 
1 - Active Site

>  <HIPPO Compound ID>  (592) 
24648

>  <energy_score>  (592) 
-21.843514

>  <fragmenstein_mode>  (592) 
expansion

>  <scratch_subdir>  (592) 
/opt/xchem-fragalysis-2/maxwin/BulkDock/SCRATCH/512066/C7646-P322

>  <smiles>  (592) 
NS(=O)(=O)CCCN1C[C@H]2C[C@H]2C1

>  <alias>  (592) 
C7646-P322

>  <ref_mols>  (592) 
A4351a,A0719a

>  <inspiration_score>  (592) 
None

>  <tags>  (592) 
BulkDock Fragalysis export,fragmenstein_placed,openbind_a71ev2a_c1_knitwork_impure,openbind_a71ev2a_c1_scaffolds

>  <fragmenstein_outcome>  (592) 
acceptable

>  <fragmenstein_error>  (592) 


>  <distance_score>  (592) 
0.938014

>  <inchikey>  (592) 
XEWCFUUENPDOSL-UHFFFAOYSA-N

>  <name>  (592) 
C7646-P322

>  <HIPPO Pose ID>  (592) 
368857

>  <Energy>  (592) 
-50.192538

>  <exports>  (592) 
['/opt/xchem-fragalysis-2/maxwin/BulkDock/OUTPUTS/openbind_a71ev2a_c1_knitwork_impure_165VXJF.sdf', '/opt/xchem-fragalysis-2/maxwin/BulkDock/OUTPUTS/openbind_a71ev2a_c1_knitwork_impure_1B07QS4.sdf', '/opt/xchem-fragalysis-2/maxwin/BulkDock/OUTPUTS/openbind_a71ev2a_c1_knitwork_impure_1B07X5R.sdf', '/opt/xchem-fragalysis-2/maxwin/openbind-hippo/a71ev2a/openbind_a71ev2a_c1_scaffold_products.sdf', '/opt/xchem-fragalysis-2/maxwin/openbind-hippo/a71ev2a/cycle_01/bulkdock/openbind_a71ev2a_c1_scaffold_products.sdf', '/opt/xchem-fragalysis-2/maxwin/openbind-hippo/a71ev2a/cycle_01/bulkdock/openbind_a71ev2a_c1_scaffolds.sdf']

>  <fragmenstein_runtime>  (592) 
5.83991

$$$$
C7674-P322
     RDKit          3D

 13 14  0  0  0  0  0  0  0  0999 V2000
    5.4804   15.5813   21.9991 N   0  0  0  0  0  0  0  0  0  0  0  0
    6.8491   14.8051   22.5580 S   0  0  0  0  0  0  0  0  0  0  0  0
    7.9886   15.5513   22.0906 O   0  0  0  0  0  0  0  0  0  0  0  0
    6.7023   13.4069   22.2234 O   0  0  0  0  0  0  0  0  0  0  0  0
    6.5992   15.1078   24.3130 C   0  0  0  0  0  0  0  0  0  0  0  0
    7.6654   14.5035   25.2092 C   0  0  0  0  0  0  0  0  0  0  0  0
    7.5021   12.9876   25.2832 C   0  0  0  0  0  0  0  0  0  0  0  0
    8.7376   12.2554   25.0248 N   0  0  0  0  0  0  0  0  0  0  0  0
    8.4383   10.8155   24.8730 C   0  0  0  0  0  0  0  0  0  0  0  0
    9.4632   10.2340   23.8868 C   0  0  0  0  0  0  0  0  0  0  0  0
   10.0281   11.4091   23.1669 C   0  0  2  0  0  0  0  0  0  0  0  0
   10.9236   12.4887   23.7416 C   0  0  0  0  0  0  0  0  0  0  0  0
    9.4454   12.6256   23.7872 C   0  0  2  0  0  0  0  0  0  0  0  0
  1  2  1  0
  2  3  2  0
  2  4  2  0
  2  5  1  0
  5  6  1  0
  6  7  1  0
  7  8  1  0
  8  9  1  0
  9 10  1  0
 11 10  1  1
 11 12  1  0
 13 12  1  1
 13  8  1  0
 13 11  1  0
M  END
>  <ref_pdb>  (593) 
A4351a

>  <subsites>  (593) 
1 - Active Site

>  <HIPPO Compound ID>  (593) 
6282

>  <energy_score>  (593) 
-77.522579

>  <fragmenstein_mode>  (593) 
expansion

>  <scratch_subdir>  (593) 
/opt/xchem-fragalysis-2/maxwin/BulkDock/SCRATCH/512066/C7674-P322

>  <smiles>  (593) 
NS(=O)(=O)CCCN1CC[C@@H]2C[C@@H]21

>  <alias>  (593) 
C7674-P322

>  <ref_mols>  (593) 
A4351a,A0719a

>  <inspiration_score>  (593) 
None

>  <tags>  (593) 
BulkDock Fragalysis export,fragmenstein_placed,openbind_a71ev2a_c1_knitwork_impure,openbind_a71ev2a_c1_scaffolds

>  <fragmenstein_outcome>  (593) 
acceptable

>  <fragmenstein_error>  (593) 


>  <distance_score>  (593) 
0.940576

>  <inchikey>  (593) 
ORBZHPMIKIFVPF-UHFFFAOYSA-N

>  <name>  (593) 
C7674-P322

>  <HIPPO Pose ID>  (593) 
368872

>  <Energy>  (593) 
-62.586328

>  <exports>  (593) 
['/opt/xchem-fragalysis-2/maxwin/BulkDock/OUTPUTS/openbind_a71ev2a_c1_knitwork_impure_165VXJF.sdf', '/opt/xchem-fragalysis-2/maxwin/BulkDock/OUTPUTS/openbind_a71ev2a_c1_knitwork_impure_1B07QS4.sdf', '/opt/xchem-fragalysis-2/maxwin/BulkDock/OUTPUTS/openbind_a71ev2a_c1_knitwork_impure_1B07X5R.sdf', '/opt/xchem-fragalysis-2/maxwin/openbind-hippo/a71ev2a/openbind_a71ev2a_c1_scaffold_products.sdf', '/opt/xchem-fragalysis-2/maxwin/openbind-hippo/a71ev2a/cycle_01/bulkdock/openbind_a71ev2a_c1_scaffold_products.sdf', '/opt/xchem-fragalysis-2/maxwin/openbind-hippo/a71ev2a/cycle_01/bulkdock/openbind_a71ev2a_c1_scaffolds.sdf']

>  <fragmenstein_runtime>  (593) 
3.885389

$$$$
C131129-P120
     RDKit          3D

 16 17  0  0  0  0  0  0  0  0999 V2000
    1.0619    9.2730   30.1808 C   0  0  0  0  0  0  0  0  0  0  0  0
    1.9241   10.0176   29.8064 C   0  0  0  0  0  0  0  0  0  0  0  0
    2.9770   10.9278   29.3473 C   0  0  0  0  0  0  0  0  0  0  0  0
    3.8384   10.2660   28.2786 C   0  0  0  0  0  0  0  0  0  0  0  0
    4.7718   11.2879   27.6589 C   0  0  0  0  0  0  0  0  0  0  0  0
    4.8851   12.3793   28.0644 O   0  0  0  0  0  0  0  0  0  0  0  0
    5.4728   10.5780   26.4623 N   0  0  0  0  0  0  0  0  0  0  0  0
    6.4838   11.0212   25.6168 C   0  0  0  0  0  0  0  0  0  0  0  0
    7.2043   10.1088   24.8366 C   0  0  0  0  0  0  0  0  0  0  0  0
    8.2794   10.5292   24.0445 C   0  0  0  0  0  0  0  0  0  0  0  0
    8.6282   11.8625   24.0677 C   0  0  0  0  0  0  0  0  0  0  0  0
    7.8748   12.7733   24.8008 C   0  0  0  0  0  0  0  0  0  0  0  0
    6.8000   12.3766   25.5728 C   0  0  0  0  0  0  0  0  0  0  0  0
    8.4168   14.1475   24.6048 C   0  0  0  0  0  0  0  0  0  0  0  0
    9.7727   13.8148   23.9576 C   0  0  0  0  0  0  0  0  0  0  0  0
    9.6411   12.4920   23.3257 N   0  0  0  0  0  0  0  0  0  0  0  0
  1  2  3  0
  2  3  1  0
  3  4  1  0
  4  5  1  0
  5  6  2  0
  5  7  1  0
  7  8  1  0
  8  9  2  0
  9 10  1  0
 10 11  2  0
 11 12  1  0
 12 13  2  0
 12 14  1  0
 14 15  1  0
 15 16  1  0
 13  8  1  0
 16 11  1  0
M  END
>  <ref_pdb>  (594) 
A1445a

>  <subsites>  (594) 
1 - Active Site

>  <HIPPO Compound ID>  (594) 
3842

>  <energy_score>  (594) 
-6.563599

>  <fragmenstein_mode>  (594) 
expansion

>  <scratch_subdir>  (594) 
/opt/xchem-fragalysis-2/maxwin/BulkDock/SCRATCH/512066/C131129-P120

>  <smiles>  (594) 
C#CCCC(=O)Nc1ccc2c(c1)CCN2

>  <alias>  (594) 
C131129-P120

>  <ref_mols>  (594) 
A1445a,A1778a

>  <inspiration_score>  (594) 
None

>  <tags>  (594) 
BulkDock Fragalysis export,fragmenstein_placed,openbind_a71ev2a_c1_knitwork_impure,openbind_a71ev2a_c1_scaffolds

>  <fragmenstein_outcome>  (594) 
acceptable

>  <fragmenstein_error>  (594) 


>  <distance_score>  (594) 
0.989514

>  <inchikey>  (594) 
PLIIAKFRJSUEBR-UHFFFAOYSA-N

>  <name>  (594) 
C131129-P120

>  <HIPPO Pose ID>  (594) 
368940

>  <Energy>  (594) 
16.103546

>  <exports>  (594) 
['/opt/xchem-fragalysis-2/maxwin/BulkDock/OUTPUTS/openbind_a71ev2a_c1_knitwork_impure_165VXJF.sdf', '/opt/xchem-fragalysis-2/maxwin/BulkDock/OUTPUTS/openbind_a71ev2a_c1_knitwork_impure_1B07QS4.sdf', '/opt/xchem-fragalysis-2/maxwin/BulkDock/OUTPUTS/openbind_a71ev2a_c1_knitwork_impure_1B07X5R.sdf', '/opt/xchem-fragalysis-2/maxwin/openbind-hippo/a71ev2a/openbind_a71ev2a_c1_scaffold_products.sdf', '/opt/xchem-fragalysis-2/maxwin/openbind-hippo/a71ev2a/cycle_01/bulkdock/openbind_a71ev2a_c1_scaffold_products.sdf', '/opt/xchem-fragalysis-2/maxwin/openbind-hippo/a71ev2a/cycle_01/bulkdock/openbind_a71ev2a_c1_scaffolds.sdf']

>  <fragmenstein_runtime>  (594) 
4.812933

$$$$
C8137-P195
     RDKit          3D

 18 18  0  0  0  0  0  0  0  0999 V2000
   11.3568   15.2057   18.6493 C   0  0  0  0  0  0  0  0  0  0  0  0
   10.4067   16.0179   19.5053 C   0  0  0  0  0  0  0  0  0  0  0  0
   10.6091   15.7768   20.9970 C   0  0  0  0  0  0  0  0  0  0  0  0
    9.5122   14.9396   21.6493 C   0  0  0  0  0  0  0  0  0  0  0  0
    8.1812   15.5838   21.7647 N   0  0  0  0  0  0  0  0  0  0  0  0
    8.1747   16.9875   22.1937 C   0  0  0  0  0  0  0  0  0  0  0  0
    6.8748   14.6891   22.3114 S   0  0  0  0  0  0  0  0  0  0  0  0
    7.0076   13.3114   21.9155 O   0  0  0  0  0  0  0  0  0  0  0  0
    5.6579   15.3987   21.9876 O   0  0  0  0  0  0  0  0  0  0  0  0
    6.9882   14.7473   23.9726 N   0  0  0  0  0  0  0  0  0  0  0  0
    8.1476   14.3363   24.7918 C   0  0  1  0  0  0  0  0  0  0  0  0
    7.8732   14.9191   26.1926 C   0  0  0  0  0  0  0  0  0  0  0  0
    8.4166   12.8091   24.8981 C   0  0  0  0  0  0  0  0  0  0  0  0
    7.1506   11.9986   25.1644 C   0  0  0  0  0  0  0  0  0  0  0  0
    7.4146   10.5051   25.1803 C   0  0  0  0  0  0  0  0  0  0  0  0
    8.0182   10.0767   23.9455 N   0  0  0  0  0  0  0  0  0  0  0  0
    9.2715   10.7085   23.6140 C   0  0  0  0  0  0  0  0  0  0  0  0
    9.2609   12.2306   23.7498 C   0  0  0  0  0  0  0  0  0  0  0  0
  1  2  1  0
  2  3  1  0
  3  4  1  0
  4  5  1  0
  5  6  1  0
  5  7  1  0
  7  8  2  0
  7  9  2  0
  7 10  1  0
 10 11  1  0
 11 12  1  1
 11 13  1  0
 13 14  1  0
 14 15  1  0
 15 16  1  0
 16 17  1  0
 17 18  1  0
 18 13  1  0
M  END
>  <ref_pdb>  (595) 
A3612a

>  <subsites>  (595) 
1 - Active Site

>  <HIPPO Compound ID>  (595) 
31893

>  <energy_score>  (595) 
-53.060248

>  <fragmenstein_mode>  (595) 
expansion

>  <scratch_subdir>  (595) 
/opt/xchem-fragalysis-2/maxwin/BulkDock/SCRATCH/512066/C8137-P195

>  <smiles>  (595) 
CCCCN(C)S(=O)(=O)N[C@@H](C)C1CCNCC1

>  <alias>  (595) 
C8137-P195

>  <ref_mols>  (595) 
A3612a,A0719a

>  <inspiration_score>  (595) 
None

>  <tags>  (595) 
BulkDock Fragalysis export,fragmenstein_placed,openbind_a71ev2a_c1_knitwork_impure,openbind_a71ev2a_c1_scaffolds

>  <fragmenstein_outcome>  (595) 
acceptable

>  <fragmenstein_error>  (595) 


>  <distance_score>  (595) 
0.902108

>  <inchikey>  (595) 
FKUJMGDPPLMJGR-UHFFFAOYSA-N

>  <name>  (595) 
C8137-P195

>  <HIPPO Pose ID>  (595) 
369045

>  <Energy>  (595) 
-159.756872

>  <exports>  (595) 
['/opt/xchem-fragalysis-2/maxwin/BulkDock/OUTPUTS/openbind_a71ev2a_c1_knitwork_impure_165VXJF.sdf', '/opt/xchem-fragalysis-2/maxwin/BulkDock/OUTPUTS/openbind_a71ev2a_c1_knitwork_impure_1B07QS4.sdf', '/opt/xchem-fragalysis-2/maxwin/BulkDock/OUTPUTS/openbind_a71ev2a_c1_knitwork_impure_1B07X5R.sdf', '/opt/xchem-fragalysis-2/maxwin/openbind-hippo/a71ev2a/openbind_a71ev2a_c1_scaffold_products.sdf', '/opt/xchem-fragalysis-2/maxwin/openbind-hippo/a71ev2a/cycle_01/bulkdock/openbind_a71ev2a_c1_scaffold_products.sdf', '/opt/xchem-fragalysis-2/maxwin/openbind-hippo/a71ev2a/cycle_01/bulkdock/openbind_a71ev2a_c1_scaffolds.sdf']

>  <fragmenstein_runtime>  (595) 
53.229009

$$$$
C8169-P195
     RDKit          3D

 14 14  0  0  0  0  0  0  0  0999 V2000
    7.7595   13.1040   22.4199 O   0  0  0  0  0  0  0  0  0  0  0  0
    8.8767   13.3066   23.3132 S   0  0  0  0  0  0  0  0  0  0  0  0
    9.9236   12.3376   23.5172 O   0  0  0  0  0  0  0  0  0  0  0  0
    8.1474   13.5601   24.8070 N   0  0  0  0  0  0  0  0  0  0  0  0
    7.5306   12.3389   25.3586 C   0  0  0  0  0  0  0  0  0  0  0  0
    6.3405   12.7589   26.2084 C   0  0  0  0  0  0  0  0  0  0  0  0
    5.8509   11.6895   27.1626 C   0  0  0  0  0  0  0  0  0  0  0  0
    5.8313   10.0825   26.4406 Cl  0  0  0  0  0  0  0  0  0  0  0  0
    9.4705   14.8517   23.1313 N   0  0  0  0  0  0  0  0  0  0  0  0
   10.6939   15.2389   23.8495 C   0  0  0  0  0  0  0  0  0  0  0  0
   11.9136   15.0683   22.9550 C   0  0  0  0  0  0  0  0  0  0  0  0
   11.7523   15.8389   21.6475 C   0  0  0  0  0  0  0  0  0  0  0  0
   10.4730   15.4124   20.9372 C   0  0  0  0  0  0  0  0  0  0  0  0
    9.2648   15.5685   21.8488 C   0  0  0  0  0  0  0  0  0  0  0  0
  1  2  2  0
  2  3  2  0
  2  4  1  0
  4  5  1  0
  5  6  1  0
  6  7  1  0
  7  8  1  0
  2  9  1  0
  9 10  1  0
 10 11  1  0
 11 12  1  0
 12 13  1  0
 13 14  1  0
 14  9  1  0
M  END
>  <ref_pdb>  (596) 
A3612a

>  <subsites>  (596) 
1 - Active Site

>  <HIPPO Compound ID>  (596) 
2636

>  <energy_score>  (596) 
-46.754232

>  <fragmenstein_mode>  (596) 
expansion

>  <scratch_subdir>  (596) 
/opt/xchem-fragalysis-2/maxwin/BulkDock/SCRATCH/512066/C8169-P195

>  <smiles>  (596) 
O=S(=O)(NCCCCl)N1CCCCC1

>  <alias>  (596) 
C8169-P195

>  <ref_mols>  (596) 
A3612a,A0719a

>  <inspiration_score>  (596) 
None

>  <tags>  (596) 
BulkDock Fragalysis export,fragmenstein_placed,openbind_a71ev2a_c1_knitwork_impure,openbind_a71ev2a_c1_scaffolds

>  <fragmenstein_outcome>  (596) 
acceptable

>  <fragmenstein_error>  (596) 


>  <distance_score>  (596) 
0.918218

>  <inchikey>  (596) 
VLTCJSKEHQAUTL-UHFFFAOYSA-N

>  <name>  (596) 
C8169-P195

>  <HIPPO Pose ID>  (596) 
369063

>  <Energy>  (596) 
-180.646076

>  <exports>  (596) 
['/opt/xchem-fragalysis-2/maxwin/BulkDock/OUTPUTS/openbind_a71ev2a_c1_knitwork_impure_165VXJF.sdf', '/opt/xchem-fragalysis-2/maxwin/BulkDock/OUTPUTS/openbind_a71ev2a_c1_knitwork_impure_1B07QS4.sdf', '/opt/xchem-fragalysis-2/maxwin/BulkDock/OUTPUTS/openbind_a71ev2a_c1_knitwork_impure_1B07X5R.sdf', '/opt/xchem-fragalysis-2/maxwin/openbind-hippo/a71ev2a/openbind_a71ev2a_c1_scaffold_products.sdf', '/opt/xchem-fragalysis-2/maxwin/openbind-hippo/a71ev2a/cycle_01/bulkdock/openbind_a71ev2a_c1_scaffold_products.sdf', '/opt/xchem-fragalysis-2/maxwin/openbind-hippo/a71ev2a/cycle_01/bulkdock/openbind_a71ev2a_c1_scaffolds.sdf']

>  <fragmenstein_runtime>  (596) 
3.653838

$$$$
C9144-P234
     RDKit          3D

 13 13  0  0  0  0  0  0  0  0999 V2000
   11.5580   15.2328   24.6131 O   0  0  0  0  0  0  0  0  0  0  0  0
   11.0586   15.1678   23.5000 C   0  0  0  0  0  0  0  0  0  0  0  0
   11.7131   15.5940   22.2082 C   0  0  0  0  0  0  0  0  0  0  0  0
   10.8495   14.9241   21.1522 C   0  0  0  0  0  0  0  0  0  0  0  0
    9.4795   14.8411   21.7968 C   0  0  0  0  0  0  0  0  0  0  0  0
    9.7725   14.7477   23.2082 N   0  0  0  0  0  0  0  0  0  0  0  0
    8.7746   14.3895   24.2060 C   0  0  0  0  0  0  0  0  0  0  0  0
    8.6481   12.8861   24.4327 C   0  0  0  0  0  0  0  0  0  0  0  0
    9.4839   12.0770   24.0155 O   0  0  0  0  0  0  0  0  0  0  0  0
    7.4351   12.4747   25.2606 C   0  0  0  0  0  0  0  0  0  0  0  0
    6.3229   13.1435   24.8743 F   0  0  0  0  0  0  0  0  0  0  0  0
    7.1706   11.1436   25.1721 F   0  0  0  0  0  0  0  0  0  0  0  0
    7.5500   12.7357   26.5921 F   0  0  0  0  0  0  0  0  0  0  0  0
  1  2  2  0
  2  3  1  0
  3  4  1  0
  4  5  1  0
  5  6  1  0
  6  7  1  0
  7  8  1  0
  8  9  2  0
  8 10  1  0
 10 11  1  0
 10 12  1  0
 10 13  1  0
  6  2  1  0
M  END
>  <ref_pdb>  (597) 
A3895a

>  <subsites>  (597) 
1 - Active Site

>  <HIPPO Compound ID>  (597) 
28383

>  <energy_score>  (597) 
-22.905459

>  <fragmenstein_mode>  (597) 
expansion

>  <scratch_subdir>  (597) 
/opt/xchem-fragalysis-2/maxwin/BulkDock/SCRATCH/512066/C9144-P234

>  <smiles>  (597) 
O=C1CCCN1CC(=O)C(F)(F)F

>  <alias>  (597) 
C9144-P234

>  <ref_mols>  (597) 
A3895a,A1775a

>  <inspiration_score>  (597) 
None

>  <tags>  (597) 
BulkDock Fragalysis export,fragmenstein_placed,openbind_a71ev2a_c1_knitwork_impure,openbind_a71ev2a_c1_scaffolds

>  <fragmenstein_outcome>  (597) 
acceptable

>  <fragmenstein_error>  (597) 


>  <distance_score>  (597) 
0.632919

>  <inchikey>  (597) 
PVHTYTCVYUNLLL-UHFFFAOYSA-N

>  <name>  (597) 
C9144-P234

>  <HIPPO Pose ID>  (597) 
369312

>  <Energy>  (597) 
33.486244

>  <exports>  (597) 
['/opt/xchem-fragalysis-2/maxwin/BulkDock/OUTPUTS/openbind_a71ev2a_c1_knitwork_impure_165VXJF.sdf', '/opt/xchem-fragalysis-2/maxwin/BulkDock/OUTPUTS/openbind_a71ev2a_c1_knitwork_impure_1B07QS4.sdf', '/opt/xchem-fragalysis-2/maxwin/BulkDock/OUTPUTS/openbind_a71ev2a_c1_knitwork_impure_1B07X5R.sdf', '/opt/xchem-fragalysis-2/maxwin/openbind-hippo/a71ev2a/openbind_a71ev2a_c1_scaffold_products.sdf', '/opt/xchem-fragalysis-2/maxwin/openbind-hippo/a71ev2a/cycle_01/bulkdock/openbind_a71ev2a_c1_scaffold_products.sdf', '/opt/xchem-fragalysis-2/maxwin/openbind-hippo/a71ev2a/cycle_01/bulkdock/openbind_a71ev2a_c1_scaffolds.sdf']

>  <fragmenstein_runtime>  (597) 
1.345665

$$$$
C7620-P229
     RDKit          3D

 15 16  0  0  0  0  0  0  0  0999 V2000
   11.9303   15.1742   23.8237 C   0  0  0  0  0  0  0  0  0  0  0  0
   11.6346   14.0710   22.8321 C   0  0  0  0  0  0  0  0  0  0  0  0
   10.2016   14.0801   22.3364 C   0  0  0  0  0  0  0  0  0  0  0  0
    8.9687   13.5228   23.4902 S   0  0  0  0  0  0  0  0  0  0  0  0
    7.8657   12.9811   22.7255 O   0  0  0  0  0  0  0  0  0  0  0  0
    8.7696   14.5613   24.4797 O   0  0  0  0  0  0  0  0  0  0  0  0
    9.7537   12.2695   24.3227 N   0  0  0  0  0  0  0  0  0  0  0  0
    9.0230   10.9669   24.4389 C   0  0  0  0  0  0  0  0  0  0  0  0
    8.0295   10.9186   25.5957 C   0  0  1  0  0  0  0  0  0  0  0  0
    7.0241   12.0335   25.7401 C   0  0  0  0  0  0  0  0  0  0  0  0
    6.0109   11.4703   26.7140 C   0  0  0  0  0  0  0  0  0  0  0  0
    6.0737    9.9671   26.5285 C   0  0  0  0  0  0  0  0  0  0  0  0
    7.2907    9.6680   25.7741 N   0  0  0  0  0  0  0  0  0  0  0  0
    9.0164   10.0784   23.2046 C   0  0  0  0  0  0  0  0  0  0  0  0
    9.8310    9.6683   24.3268 C   0  0  0  0  0  0  0  0  0  0  0  0
  1  2  1  0
  2  3  1  0
  3  4  1  0
  4  5  2  0
  4  6  2  0
  4  7  1  0
  7  8  1  0
  9  8  1  6
  9 10  1  0
 10 11  1  0
 11 12  1  0
 12 13  1  0
  8 14  1  0
 14 15  1  0
 15  8  1  0
 13  9  1  0
M  END
>  <ref_pdb>  (598) 
A3869a

>  <subsites>  (598) 
1 - Active Site

>  <HIPPO Compound ID>  (598) 
7169

>  <energy_score>  (598) 
-55.990724

>  <fragmenstein_mode>  (598) 
expansion

>  <scratch_subdir>  (598) 
/opt/xchem-fragalysis-2/maxwin/BulkDock/SCRATCH/512066/C7620-P229

>  <smiles>  (598) 
CCCS(=O)(=O)NC1([C@H]2CCCN2)CC1

>  <alias>  (598) 
C7620-P229

>  <ref_mols>  (598) 
A3869a,A0719a

>  <inspiration_score>  (598) 
None

>  <tags>  (598) 
BulkDock Fragalysis export,fragmenstein_placed,openbind_a71ev2a_c1_knitwork_impure,openbind_a71ev2a_c1_scaffolds

>  <fragmenstein_outcome>  (598) 
acceptable

>  <fragmenstein_error>  (598) 


>  <distance_score>  (598) 
0.989509

>  <inchikey>  (598) 
YIILFKIQHWPXAG-UHFFFAOYSA-N

>  <name>  (598) 
C7620-P229

>  <HIPPO Pose ID>  (598) 
369560

>  <Energy>  (598) 
-22.698986

>  <exports>  (598) 
['/opt/xchem-fragalysis-2/maxwin/BulkDock/OUTPUTS/openbind_a71ev2a_c1_knitwork_impure_165VXJF.sdf', '/opt/xchem-fragalysis-2/maxwin/BulkDock/OUTPUTS/openbind_a71ev2a_c1_knitwork_impure_1B07QS4.sdf', '/opt/xchem-fragalysis-2/maxwin/BulkDock/OUTPUTS/openbind_a71ev2a_c1_knitwork_impure_1B07X5R.sdf', '/opt/xchem-fragalysis-2/maxwin/openbind-hippo/a71ev2a/openbind_a71ev2a_c1_scaffold_products.sdf', '/opt/xchem-fragalysis-2/maxwin/openbind-hippo/a71ev2a/cycle_01/bulkdock/openbind_a71ev2a_c1_scaffold_products.sdf', '/opt/xchem-fragalysis-2/maxwin/openbind-hippo/a71ev2a/cycle_01/bulkdock/openbind_a71ev2a_c1_scaffolds.sdf']

>  <fragmenstein_runtime>  (598) 
11.14363

$$$$
C8903-P457
     RDKit          3D

 19 21  0  0  0  0  0  0  0  0999 V2000
    9.3655   13.9912   25.5861 O   0  0  0  0  0  0  0  0  0  0  0  0
    8.5155   13.6105   24.7807 C   0  0  0  0  0  0  0  0  0  0  0  0
    8.2615   14.2724   23.4360 C   0  0  0  0  0  0  0  0  0  0  0  0
    9.3986   14.1650   22.4980 N   0  0  0  0  0  0  0  0  0  0  0  0
   10.6896   14.4952   23.1237 C   0  0  0  0  0  0  0  0  0  0  0  0
   11.8429   14.4357   22.1322 C   0  0  0  0  0  0  0  0  0  0  0  0
   11.6002   15.3377   20.9415 C   0  0  0  0  0  0  0  0  0  0  0  0
   10.2412   15.0670   20.3184 C   0  0  0  0  0  0  0  0  0  0  0  0
    9.1390   15.0961   21.3731 C   0  0  0  0  0  0  0  0  0  0  0  0
    7.6097   12.5327   25.2057 C   0  0  0  0  0  0  0  0  0  0  0  0
    7.6872   11.2581   24.6565 C   0  0  0  0  0  0  0  0  0  0  0  0
    6.8475   10.2565   25.1568 C   0  0  0  0  0  0  0  0  0  0  0  0
    5.9466   10.5102   26.2058 C   0  0  0  0  0  0  0  0  0  0  0  0
    5.8617   11.8146   26.7225 C   0  0  0  0  0  0  0  0  0  0  0  0
    6.7124   12.8144   26.2364 C   0  0  0  0  0  0  0  0  0  0  0  0
    4.9312   12.1420   27.8628 C   0  0  0  0  0  0  0  0  0  0  0  0
    3.8427   11.0927   28.0390 C   0  0  0  0  0  0  0  0  0  0  0  0
    4.4496    9.7041   27.9400 C   0  0  0  0  0  0  0  0  0  0  0  0
    5.0573    9.5094   26.6281 N   0  0  0  0  0  0  0  0  0  0  0  0
  1  2  2  0
  2  3  1  0
  3  4  1  0
  4  5  1  0
  5  6  1  0
  6  7  1  0
  7  8  1  0
  8  9  1  0
  2 10  1  0
 10 11  2  0
 11 12  1  0
 12 13  2  0
 13 14  1  0
 14 15  2  0
 14 16  1  0
 16 17  1  0
 17 18  1  0
 18 19  1  0
  9  4  1  0
 15 10  1  0
 19 13  1  0
M  END
>  <ref_pdb>  (599) 
A4751a

>  <subsites>  (599) 
1 - Active Site

>  <HIPPO Compound ID>  (599) 
7673

>  <energy_score>  (599) 
-33.671846

>  <fragmenstein_mode>  (599) 
expansion

>  <scratch_subdir>  (599) 
/opt/xchem-fragalysis-2/maxwin/BulkDock/SCRATCH/512066/C8903-P457

>  <smiles>  (599) 
O=C(CN1CCCCC1)c1ccc2c(c1)CCCN2

>  <alias>  (599) 
C8903-P457

>  <ref_mols>  (599) 
A4751a,A1778a

>  <inspiration_score>  (599) 
None

>  <tags>  (599) 
BulkDock Fragalysis export,fragmenstein_placed,openbind_a71ev2a_c1_knitwork_impure,openbind_a71ev2a_c1_scaffolds

>  <fragmenstein_outcome>  (599) 
acceptable

>  <fragmenstein_error>  (599) 


>  <distance_score>  (599) 
0.880909

>  <inchikey>  (599) 
FEWUTFMHYWVVGO-UHFFFAOYSA-N

>  <name>  (599) 
C8903-P457

>  <HIPPO Pose ID>  (599) 
369840

>  <Energy>  (599) 
59.033157

>  <exports>  (599) 
['/opt/xchem-fragalysis-2/maxwin/BulkDock/OUTPUTS/openbind_a71ev2a_c1_knitwork_impure_165VXJF.sdf', '/opt/xchem-fragalysis-2/maxwin/BulkDock/OUTPUTS/openbind_a71ev2a_c1_knitwork_impure_1B07QS4.sdf', '/opt/xchem-fragalysis-2/maxwin/BulkDock/OUTPUTS/openbind_a71ev2a_c1_knitwork_impure_1B07X5R.sdf', '/opt/xchem-fragalysis-2/maxwin/openbind-hippo/a71ev2a/openbind_a71ev2a_c1_scaffold_products.sdf', '/opt/xchem-fragalysis-2/maxwin/openbind-hippo/a71ev2a/cycle_01/bulkdock/openbind_a71ev2a_c1_scaffold_products.sdf', '/opt/xchem-fragalysis-2/maxwin/openbind-hippo/a71ev2a/cycle_01/bulkdock/openbind_a71ev2a_c1_scaffolds.sdf']

>  <fragmenstein_runtime>  (599) 
5.23789

$$$$
C1414-P457
     RDKit          3D

 15 15  0  0  0  0  0  0  0  0999 V2000
   11.1012   15.1158   19.7081 C   0  0  0  0  0  0  0  0  0  0  0  0
   12.0147   14.7025   20.8464 C   0  0  0  0  0  0  0  0  0  0  0  0
   11.3174   14.2548   22.1334 C   0  0  0  0  0  0  0  0  0  0  0  0
   10.5235   15.3705   22.8112 C   0  0  0  0  0  0  0  0  0  0  0  0
    8.9973   15.1797   22.8371 C   0  0  1  0  0  0  0  0  0  0  0  0
    8.3816   15.1274   21.4585 C   0  0  0  0  0  0  0  0  0  0  0  0
    8.5560   14.0598   23.6403 N   0  0  0  0  0  0  0  0  0  0  0  0
    9.2713   13.2960   24.7730 C   0  0  0  0  0  0  0  0  0  0  0  0
   10.2976   13.4968   25.2895 O   0  0  0  0  0  0  0  0  0  0  0  0
    8.3771   12.1370   25.2162 C   0  0  0  0  0  0  0  0  0  0  0  0
    8.2329   11.0640   24.1483 C   0  0  0  0  0  0  0  0  0  0  0  0
    7.4958    9.8714   24.7380 C   0  0  0  0  0  0  0  0  0  0  0  0
    6.1976   10.2294   25.3086 N   0  0  0  0  0  0  0  0  0  0  0  0
    6.2709   11.3139   26.2848 C   0  0  0  0  0  0  0  0  0  0  0  0
    6.9986   12.5442   25.7394 C   0  0  0  0  0  0  0  0  0  0  0  0
  1  2  1  0
  2  3  1  0
  3  4  1  0
  4  5  1  0
  5  6  1  6
  5  7  1  0
  7  8  1  0
  8  9  2  0
  8 10  1  0
 10 11  1  0
 11 12  1  0
 12 13  1  0
 13 14  1  0
 14 15  1  0
 15 10  1  0
M  END
>  <ref_pdb>  (600) 
A4751a

>  <subsites>  (600) 
1 - Active Site,5 - A3181/A/202/1

>  <HIPPO Compound ID>  (600) 
2652

>  <energy_score>  (600) 
-13.738986

>  <fragmenstein_mode>  (600) 
expansion

>  <scratch_subdir>  (600) 
/opt/xchem-fragalysis-2/maxwin/BulkDock/SCRATCH/512066/C1414-P457

>  <smiles>  (600) 
CCCC[C@@H](C)NC(=O)C1CCNCC1

>  <alias>  (600) 
C1414-P457

>  <ref_mols>  (600) 
A4751a,A3181b,A1778a

>  <inspiration_score>  (600) 
None

>  <tags>  (600) 
BulkDock Fragalysis export,fragmenstein_placed,openbind_a71ev2a_c1_knitwork_impure,openbind_a71ev2a_c1_scaffolds

>  <fragmenstein_outcome>  (600) 
acceptable

>  <fragmenstein_error>  (600) 


>  <distance_score>  (600) 
0.993129

>  <inchikey>  (600) 
XANBFXMPGDEVBY-UHFFFAOYSA-N

>  <name>  (600) 
C1414-P457

>  <HIPPO Pose ID>  (600) 
369865

>  <Energy>  (600) 
-2.273099

>  <exports>  (600) 
['/opt/xchem-fragalysis-2/maxwin/BulkDock/OUTPUTS/openbind_a71ev2a_c1_knitwork_impure_165VXJF.sdf', '/opt/xchem-fragalysis-2/maxwin/BulkDock/OUTPUTS/openbind_a71ev2a_c1_knitwork_impure_1B07QS4.sdf', '/opt/xchem-fragalysis-2/maxwin/BulkDock/OUTPUTS/openbind_a71ev2a_c1_knitwork_impure_1B07X5R.sdf', '/opt/xchem-fragalysis-2/maxwin/openbind-hippo/a71ev2a/openbind_a71ev2a_c1_scaffold_products.sdf', '/opt/xchem-fragalysis-2/maxwin/openbind-hippo/a71ev2a/cycle_01/bulkdock/openbind_a71ev2a_c1_scaffold_products.sdf', '/opt/xchem-fragalysis-2/maxwin/openbind-hippo/a71ev2a/cycle_01/bulkdock/openbind_a71ev2a_c1_scaffolds.sdf']

>  <fragmenstein_runtime>  (600) 
3.538183

$$$$
C2382-P308
     RDKit          3D

 15 15  0  0  0  0  0  0  0  0999 V2000
    8.8302   10.3065   24.4004 C   0  0  0  0  0  0  0  0  0  0  0  0
    7.9477   11.0701   25.3800 C   0  0  0  0  0  0  0  0  0  0  0  0
    6.6898   10.2580   25.6633 C   0  0  0  0  0  0  0  0  0  0  0  0
    7.5275   12.4878   24.9790 C   0  0  0  0  0  0  0  0  0  0  0  0
    8.6671   13.4851   24.7761 C   0  0  0  0  0  0  0  0  0  0  0  0
    9.3029   13.8269   25.7847 O   0  0  0  0  0  0  0  0  0  0  0  0
    9.0402   13.9354   23.2982 C   0  0  0  0  0  0  0  0  0  0  0  0
    7.7825   13.9329   22.4148 C   0  0  0  0  0  0  0  0  0  0  0  0
   10.0096   12.8763   22.7785 C   0  0  0  0  0  0  0  0  0  0  0  0
    9.6305   15.3064   23.3175 N   0  0  0  0  0  0  0  0  0  0  0  0
   10.9995   15.4166   23.8376 C   0  0  0  0  0  0  0  0  0  0  0  0
   12.1110   15.1751   22.8117 C   0  0  0  0  0  0  0  0  0  0  0  0
   11.9251   15.9621   21.5237 C   0  0  0  0  0  0  0  0  0  0  0  0
   10.5092   15.8177   20.9874 C   0  0  0  0  0  0  0  0  0  0  0  0
    9.5025   16.1243   22.0926 C   0  0  0  0  0  0  0  0  0  0  0  0
  1  2  1  0
  2  3  1  0
  2  4  1  0
  4  5  1  0
  5  6  2  0
  5  7  1  0
  7  8  1  0
  7  9  1  0
  7 10  1  0
 10 11  1  0
 11 12  1  0
 12 13  1  0
 13 14  1  0
 14 15  1  0
 15 10  1  0
M  END
>  <ref_pdb>  (601) 
A4331a

>  <subsites>  (601) 
1 - Active Site

>  <HIPPO Compound ID>  (601) 
1318

>  <energy_score>  (601) 
-34.36724

>  <fragmenstein_mode>  (601) 
expansion

>  <scratch_subdir>  (601) 
/opt/xchem-fragalysis-2/maxwin/BulkDock/SCRATCH/512066/C2382-P308

>  <smiles>  (601) 
CC(C)CC(=O)C(C)(C)N1CCCCC1

>  <alias>  (601) 
C2382-P308

>  <ref_mols>  (601) 
A4331a,A1779a

>  <inspiration_score>  (601) 
None

>  <tags>  (601) 
BulkDock Fragalysis export,fragmenstein_placed,openbind_a71ev2a_c1_knitwork_impure,openbind_a71ev2a_c1_scaffolds

>  <fragmenstein_outcome>  (601) 
acceptable

>  <fragmenstein_error>  (601) 


>  <distance_score>  (601) 
0.994712

>  <inchikey>  (601) 
AXOVECJXLBLXBH-UHFFFAOYSA-N

>  <name>  (601) 
C2382-P308

>  <HIPPO Pose ID>  (601) 
370389

>  <Energy>  (601) 
69.312811

>  <exports>  (601) 
['/opt/xchem-fragalysis-2/maxwin/BulkDock/OUTPUTS/openbind_a71ev2a_c1_knitwork_impure_165VXJF.sdf', '/opt/xchem-fragalysis-2/maxwin/BulkDock/OUTPUTS/openbind_a71ev2a_c1_knitwork_impure_1B07QS4.sdf', '/opt/xchem-fragalysis-2/maxwin/BulkDock/OUTPUTS/openbind_a71ev2a_c1_knitwork_impure_1B07X5R.sdf', '/opt/xchem-fragalysis-2/maxwin/openbind-hippo/a71ev2a/openbind_a71ev2a_c1_scaffold_products.sdf', '/opt/xchem-fragalysis-2/maxwin/openbind-hippo/a71ev2a/cycle_01/bulkdock/openbind_a71ev2a_c1_scaffold_products.sdf', '/opt/xchem-fragalysis-2/maxwin/openbind-hippo/a71ev2a/cycle_01/bulkdock/openbind_a71ev2a_c1_scaffolds.sdf']

>  <fragmenstein_runtime>  (601) 
5.35709

$$$$
C2397-P308
     RDKit          3D

 15 15  0  0  0  0  0  0  0  0999 V2000
   11.4406   15.4870   18.7680 C   0  0  0  0  0  0  0  0  0  0  0  0
   10.3022   15.7729   19.7298 C   0  0  0  0  0  0  0  0  0  0  0  0
   10.1077   17.2367   20.0924 C   0  0  0  0  0  0  0  0  0  0  0  0
   10.5337   15.0091   21.0196 C   0  0  0  0  0  0  0  0  0  0  0  0
    9.2663   14.9605   21.8354 C   0  0  0  0  0  0  0  0  0  0  0  0
    9.6092   14.2863   23.0255 O   0  0  0  0  0  0  0  0  0  0  0  0
    8.4507   13.8291   23.6941 C   0  0  0  0  0  0  0  0  0  0  0  0
    8.9610   13.1501   24.9485 C   0  0  1  0  0  0  0  0  0  0  0  0
    9.5655   14.1886   25.9127 C   0  0  0  0  0  0  0  0  0  0  0  0
    7.8800   12.3035   25.6104 C   0  0  1  0  0  0  0  0  0  0  0  0
    6.6771   13.1168   26.1115 C   0  0  0  0  0  0  0  0  0  0  0  0
    5.7353   12.2548   26.9363 C   0  0  0  0  0  0  0  0  0  0  0  0
    5.4383   10.9492   26.2271 C   0  0  0  0  0  0  0  0  0  0  0  0
    6.6394   10.2816   25.5724 C   0  0  0  0  0  0  0  0  0  0  0  0
    7.4107   11.2089   24.7520 N   0  0  0  0  0  0  0  0  0  0  0  0
  1  2  1  0
  2  3  1  0
  2  4  1  0
  4  5  1  0
  5  6  1  0
  6  7  1  0
  7  8  1  0
  8  9  1  1
  8 10  1  0
 10 11  1  6
 11 12  1  0
 12 13  1  0
 13 14  1  0
 14 15  1  0
 15 10  1  0
M  END
>  <ref_pdb>  (602) 
A4331a

>  <subsites>  (602) 
1 - Active Site

>  <HIPPO Compound ID>  (602) 
3826

>  <energy_score>  (602) 
-33.191837

>  <fragmenstein_mode>  (602) 
expansion

>  <scratch_subdir>  (602) 
/opt/xchem-fragalysis-2/maxwin/BulkDock/SCRATCH/512066/C2397-P308

>  <smiles>  (602) 
CC(C)CCOC[C@@H](C)[C@H]1CCCCN1

>  <alias>  (602) 
C2397-P308

>  <ref_mols>  (602) 
A4331a,A1779a

>  <inspiration_score>  (602) 
None

>  <tags>  (602) 
BulkDock Fragalysis export,fragmenstein_placed,openbind_a71ev2a_c1_knitwork_impure,openbind_a71ev2a_c1_scaffolds

>  <fragmenstein_outcome>  (602) 
acceptable

>  <fragmenstein_error>  (602) 


>  <distance_score>  (602) 
0.885375

>  <inchikey>  (602) 
QENDPRIYXYIRHV-UHFFFAOYSA-N

>  <name>  (602) 
C2397-P308

>  <HIPPO Pose ID>  (602) 
370399

>  <Energy>  (602) 
20.264032

>  <exports>  (602) 
['/opt/xchem-fragalysis-2/maxwin/BulkDock/OUTPUTS/openbind_a71ev2a_c1_knitwork_impure_165VXJF.sdf', '/opt/xchem-fragalysis-2/maxwin/BulkDock/OUTPUTS/openbind_a71ev2a_c1_knitwork_impure_1B07QS4.sdf', '/opt/xchem-fragalysis-2/maxwin/BulkDock/OUTPUTS/openbind_a71ev2a_c1_knitwork_impure_1B07X5R.sdf', '/opt/xchem-fragalysis-2/maxwin/openbind-hippo/a71ev2a/openbind_a71ev2a_c1_scaffold_products.sdf', '/opt/xchem-fragalysis-2/maxwin/openbind-hippo/a71ev2a/cycle_01/bulkdock/openbind_a71ev2a_c1_scaffold_products.sdf', '/opt/xchem-fragalysis-2/maxwin/openbind-hippo/a71ev2a/cycle_01/bulkdock/openbind_a71ev2a_c1_scaffolds.sdf']

>  <fragmenstein_runtime>  (602) 
6.057465

$$$$
C2401-P308
     RDKit          3D

 15 15  0  0  0  0  0  0  0  0999 V2000
    8.7847   14.5722   25.8737 C   0  0  0  0  0  0  0  0  0  0  0  0
    8.6053   13.6873   24.7247 N   0  0  0  0  0  0  0  0  0  0  0  0
    8.4023   14.4216   23.4590 C   0  0  0  0  0  0  0  0  0  0  0  0
    9.5337   15.3845   23.1046 C   0  0  0  0  0  0  0  0  0  0  0  0
    9.6411   15.4717   21.6840 O   0  0  0  0  0  0  0  0  0  0  0  0
   10.9740   15.3443   21.1650 C   0  0  0  0  0  0  0  0  0  0  0  0
   11.8701   16.4646   21.6777 C   0  0  0  0  0  0  0  0  0  0  0  0
   10.8755   15.4666   19.6420 C   0  0  0  0  0  0  0  0  0  0  0  0
   11.5562   13.9897   21.5609 C   0  0  0  0  0  0  0  0  0  0  0  0
    7.5335   12.6852   24.8740 C   0  0  1  0  0  0  0  0  0  0  0  0
    8.1839   11.3623   25.2736 C   0  0  0  0  0  0  0  0  0  0  0  0
    7.1277   10.2773   25.3122 C   0  0  0  0  0  0  0  0  0  0  0  0
    5.8936   10.6480   26.1270 C   0  0  0  0  0  0  0  0  0  0  0  0
    5.3310   11.9601   25.8217 N   0  0  0  0  0  0  0  0  0  0  0  0
    6.3587   13.0083   25.8300 C   0  0  0  0  0  0  0  0  0  0  0  0
  1  2  1  0
  2  3  1  0
  3  4  1  0
  4  5  1  0
  5  6  1  0
  6  7  1  0
  6  8  1  0
  6  9  1  0
 10  2  1  1
 10 11  1  0
 11 12  1  0
 12 13  1  0
 13 14  1  0
 14 15  1  0
 15 10  1  0
M  END
>  <ref_pdb>  (603) 
A4331a

>  <subsites>  (603) 
1 - Active Site

>  <HIPPO Compound ID>  (603) 
92775

>  <energy_score>  (603) 
-54.024148

>  <fragmenstein_mode>  (603) 
expansion

>  <scratch_subdir>  (603) 
/opt/xchem-fragalysis-2/maxwin/BulkDock/SCRATCH/512066/C2401-P308

>  <smiles>  (603) 
CN(CCOC(C)(C)C)[C@H]1CCCNC1

>  <alias>  (603) 
C2401-P308

>  <ref_mols>  (603) 
A4331a,A1779a

>  <inspiration_score>  (603) 
None

>  <tags>  (603) 
BulkDock Fragalysis export,fragmenstein_placed,openbind_a71ev2a_c1_knitwork_impure,openbind_a71ev2a_c1_scaffolds

>  <fragmenstein_outcome>  (603) 
acceptable

>  <fragmenstein_error>  (603) 


>  <distance_score>  (603) 
0.969224

>  <inchikey>  (603) 
WYQDXWYIGKTVHX-UHFFFAOYSA-N

>  <name>  (603) 
C2401-P308

>  <HIPPO Pose ID>  (603) 
370403

>  <Energy>  (603) 
72.211089

>  <exports>  (603) 
['/opt/xchem-fragalysis-2/maxwin/BulkDock/OUTPUTS/openbind_a71ev2a_c1_knitwork_impure_165VXJF.sdf', '/opt/xchem-fragalysis-2/maxwin/BulkDock/OUTPUTS/openbind_a71ev2a_c1_knitwork_impure_1B07QS4.sdf', '/opt/xchem-fragalysis-2/maxwin/BulkDock/OUTPUTS/openbind_a71ev2a_c1_knitwork_impure_1B07X5R.sdf', '/opt/xchem-fragalysis-2/maxwin/openbind-hippo/a71ev2a/openbind_a71ev2a_c1_scaffold_products.sdf', '/opt/xchem-fragalysis-2/maxwin/openbind-hippo/a71ev2a/cycle_01/bulkdock/openbind_a71ev2a_c1_scaffold_products.sdf', '/opt/xchem-fragalysis-2/maxwin/openbind-hippo/a71ev2a/cycle_01/bulkdock/openbind_a71ev2a_c1_scaffolds.sdf']

>  <fragmenstein_runtime>  (603) 
42.588642

$$$$
C2408-P308
     RDKit          3D

 15 15  0  0  0  0  0  0  0  0999 V2000
    9.1942   10.0478   24.4200 C   0  0  0  0  0  0  0  0  0  0  0  0
    7.9057   10.8498   24.5315 C   0  0  0  0  0  0  0  0  0  0  0  0
    7.9784   12.0799   25.4325 C   0  0  2  0  0  0  0  0  0  0  0  0
    6.5803   12.4953   25.9043 C   0  0  0  0  0  0  0  0  0  0  0  0
    8.7569   13.3577   25.0178 C   0  0  0  0  0  0  0  0  0  0  0  0
    9.2196   14.0267   25.9584 O   0  0  0  0  0  0  0  0  0  0  0  0
    8.9266   13.7832   23.4973 C   0  0  0  0  0  0  0  0  0  0  0  0
    7.5350   13.8091   22.8436 C   0  0  0  0  0  0  0  0  0  0  0  0
    9.8479   12.7617   22.8386 C   0  0  0  0  0  0  0  0  0  0  0  0
    9.5319   15.1524   23.3967 N   0  0  0  0  0  0  0  0  0  0  0  0
   10.9077   15.3095   23.8862 C   0  0  0  0  0  0  0  0  0  0  0  0
   12.0070   15.1052   22.8409 C   0  0  0  0  0  0  0  0  0  0  0  0
   11.7813   15.9283   21.5846 C   0  0  0  0  0  0  0  0  0  0  0  0
   10.3761   15.7131   21.0476 C   0  0  0  0  0  0  0  0  0  0  0  0
    9.3358   15.9201   22.1491 C   0  0  0  0  0  0  0  0  0  0  0  0
  1  2  1  0
  2  3  1  0
  3  4  1  6
  3  5  1  0
  5  6  2  0
  5  7  1  0
  7  8  1  0
  7  9  1  0
  7 10  1  0
 10 11  1  0
 11 12  1  0
 12 13  1  0
 13 14  1  0
 14 15  1  0
 15 10  1  0
M  END
>  <ref_pdb>  (604) 
A4331a

>  <subsites>  (604) 
1 - Active Site

>  <HIPPO Compound ID>  (604) 
9910

>  <energy_score>  (604) 
-47.789211

>  <fragmenstein_mode>  (604) 
expansion

>  <scratch_subdir>  (604) 
/opt/xchem-fragalysis-2/maxwin/BulkDock/SCRATCH/512066/C2408-P308

>  <smiles>  (604) 
CC[C@H](C)C(=O)C(C)(C)N1CCCCC1

>  <alias>  (604) 
C2408-P308

>  <ref_mols>  (604) 
A4331a,A1779a

>  <inspiration_score>  (604) 
None

>  <tags>  (604) 
BulkDock Fragalysis export,fragmenstein_placed,openbind_a71ev2a_c1_knitwork_impure,openbind_a71ev2a_c1_scaffolds

>  <fragmenstein_outcome>  (604) 
acceptable

>  <fragmenstein_error>  (604) 


>  <distance_score>  (604) 
0.85298

>  <inchikey>  (604) 
AQHJQVUQKSJLJN-UHFFFAOYSA-N

>  <name>  (604) 
C2408-P308

>  <HIPPO Pose ID>  (604) 
370407

>  <Energy>  (604) 
73.5033

>  <exports>  (604) 
['/opt/xchem-fragalysis-2/maxwin/BulkDock/OUTPUTS/openbind_a71ev2a_c1_knitwork_impure_165VXJF.sdf', '/opt/xchem-fragalysis-2/maxwin/BulkDock/OUTPUTS/openbind_a71ev2a_c1_knitwork_impure_1B07QS4.sdf', '/opt/xchem-fragalysis-2/maxwin/BulkDock/OUTPUTS/openbind_a71ev2a_c1_knitwork_impure_1B07X5R.sdf', '/opt/xchem-fragalysis-2/maxwin/openbind-hippo/a71ev2a/openbind_a71ev2a_c1_scaffold_products.sdf', '/opt/xchem-fragalysis-2/maxwin/openbind-hippo/a71ev2a/cycle_01/bulkdock/openbind_a71ev2a_c1_scaffold_products.sdf', '/opt/xchem-fragalysis-2/maxwin/openbind-hippo/a71ev2a/cycle_01/bulkdock/openbind_a71ev2a_c1_scaffolds.sdf']

>  <fragmenstein_runtime>  (604) 
5.418344

$$$$
C2410-P308
     RDKit          3D

 14 14  0  0  0  0  0  0  0  0999 V2000
   11.9568   15.7234   22.2238 C   0  0  0  0  0  0  0  0  0  0  0  0
   11.1480   14.9675   23.2505 C   0  0  0  0  0  0  0  0  0  0  0  0
   11.8976   13.9249   23.7009 F   0  0  0  0  0  0  0  0  0  0  0  0
   10.9144   15.7706   24.3146 F   0  0  0  0  0  0  0  0  0  0  0  0
    9.8446   14.4618   22.6512 C   0  0  0  0  0  0  0  0  0  0  0  0
    9.1937   13.3351   23.4444 C   0  0  0  0  0  0  0  0  0  0  0  0
    8.3908   13.7952   24.6489 C   0  0  2  0  0  0  0  0  0  0  0  0
    9.2197   14.3975   25.5569 F   0  0  0  0  0  0  0  0  0  0  0  0
    7.7019   12.6441   25.4083 C   0  0  1  0  0  0  0  0  0  0  0  0
    6.4440   13.2179   26.0829 C   0  0  0  0  0  0  0  0  0  0  0  0
    5.7267   12.2069   26.9593 C   0  0  0  0  0  0  0  0  0  0  0  0
    5.5963   10.8645   26.2652 C   0  0  0  0  0  0  0  0  0  0  0  0
    6.8521   10.4086   25.5406 C   0  0  0  0  0  0  0  0  0  0  0  0
    7.3570   11.4389   24.6361 N   0  0  0  0  0  0  0  0  0  0  0  0
  1  2  1  0
  2  3  1  0
  2  4  1  0
  2  5  1  0
  5  6  1  0
  6  7  1  0
  7  8  1  1
  7  9  1  0
  9 10  1  6
 10 11  1  0
 11 12  1  0
 12 13  1  0
 13 14  1  0
 14  9  1  0
M  END
>  <ref_pdb>  (605) 
A4331a

>  <subsites>  (605) 
1 - Active Site

>  <HIPPO Compound ID>  (605) 
805

>  <energy_score>  (605) 
-38.957153

>  <fragmenstein_mode>  (605) 
expansion

>  <scratch_subdir>  (605) 
/opt/xchem-fragalysis-2/maxwin/BulkDock/SCRATCH/512066/C2410-P308

>  <smiles>  (605) 
CC(F)(F)CC[C@H](F)[C@H]1CCCCN1

>  <alias>  (605) 
C2410-P308

>  <ref_mols>  (605) 
A4331a,A1779a

>  <inspiration_score>  (605) 
None

>  <tags>  (605) 
BulkDock Fragalysis export,fragmenstein_placed,openbind_a71ev2a_c1_knitwork_impure,openbind_a71ev2a_c1_scaffolds

>  <fragmenstein_outcome>  (605) 
acceptable

>  <fragmenstein_error>  (605) 


>  <distance_score>  (605) 
0.995442

>  <inchikey>  (605) 
QZNTZLREQHIPTH-UHFFFAOYSA-N

>  <name>  (605) 
C2410-P308

>  <HIPPO Pose ID>  (605) 
370409

>  <Energy>  (605) 
33.685392

>  <exports>  (605) 
['/opt/xchem-fragalysis-2/maxwin/BulkDock/OUTPUTS/openbind_a71ev2a_c1_knitwork_impure_165VXJF.sdf', '/opt/xchem-fragalysis-2/maxwin/BulkDock/OUTPUTS/openbind_a71ev2a_c1_knitwork_impure_1B07QS4.sdf', '/opt/xchem-fragalysis-2/maxwin/BulkDock/OUTPUTS/openbind_a71ev2a_c1_knitwork_impure_1B07X5R.sdf', '/opt/xchem-fragalysis-2/maxwin/openbind-hippo/a71ev2a/openbind_a71ev2a_c1_scaffold_products.sdf', '/opt/xchem-fragalysis-2/maxwin/openbind-hippo/a71ev2a/cycle_01/bulkdock/openbind_a71ev2a_c1_scaffold_products.sdf', '/opt/xchem-fragalysis-2/maxwin/openbind-hippo/a71ev2a/cycle_01/bulkdock/openbind_a71ev2a_c1_scaffolds.sdf']

>  <fragmenstein_runtime>  (605) 
1.430629

$$$$
C2413-P308
     RDKit          3D

 15 15  0  0  0  0  0  0  0  0999 V2000
    7.5392   14.2899   22.6416 C   0  0  0  0  0  0  0  0  0  0  0  0
    8.6301   14.3044   23.4403 C   0  0  0  0  0  0  0  0  0  0  0  0
    9.8034   15.1645   23.0699 C   0  0  0  0  0  0  0  0  0  0  0  0
   11.0020   14.6197   23.3836 F   0  0  0  0  0  0  0  0  0  0  0  0
    9.8322   15.4554   21.7449 F   0  0  0  0  0  0  0  0  0  0  0  0
    9.7436   16.3492   23.7308 F   0  0  0  0  0  0  0  0  0  0  0  0
    8.8283   13.5119   24.7325 C   0  0  2  0  0  0  0  0  0  0  0  0
    9.1689   14.4139   25.9294 C   0  0  0  0  0  0  0  0  0  0  0  0
    9.9410   12.7106   24.5599 F   0  0  0  0  0  0  0  0  0  0  0  0
    7.6451   12.5241   25.0353 C   0  0  2  0  0  0  0  0  0  0  0  0
    6.5151   13.1090   25.8964 C   0  0  0  0  0  0  0  0  0  0  0  0
    5.3518   12.1348   26.0785 C   0  0  0  0  0  0  0  0  0  0  0  0
    5.7790   10.6829   26.2755 C   0  0  0  0  0  0  0  0  0  0  0  0
    7.0161   10.2830   25.4840 C   0  0  0  0  0  0  0  0  0  0  0  0
    8.0853   11.2596   25.6552 N   0  0  0  0  0  0  0  0  0  0  0  0
  1  2  2  0
  2  3  1  0
  3  4  1  0
  3  5  1  0
  3  6  1  0
  2  7  1  0
  7  8  1  1
  7  9  1  0
  7 10  1  0
 10 11  1  1
 11 12  1  0
 12 13  1  0
 13 14  1  0
 14 15  1  0
 15 10  1  0
M  END
>  <ref_pdb>  (606) 
A4331a

>  <subsites>  (606) 
1 - Active Site

>  <HIPPO Compound ID>  (606) 
4545

>  <energy_score>  (606) 
-20.777392

>  <fragmenstein_mode>  (606) 
expansion

>  <scratch_subdir>  (606) 
/opt/xchem-fragalysis-2/maxwin/BulkDock/SCRATCH/512066/C2413-P308

>  <smiles>  (606) 
C=C(C(F)(F)F)[C@](C)(F)[C@@H]1CCCCN1

>  <alias>  (606) 
C2413-P308

>  <ref_mols>  (606) 
A4331a,A1779a

>  <inspiration_score>  (606) 
None

>  <tags>  (606) 
BulkDock Fragalysis export,fragmenstein_placed,openbind_a71ev2a_c1_knitwork_impure,openbind_a71ev2a_c1_scaffolds

>  <fragmenstein_outcome>  (606) 
acceptable

>  <fragmenstein_error>  (606) 


>  <distance_score>  (606) 
0.776289

>  <inchikey>  (606) 
JSYRTCNAAWDFHA-UHFFFAOYSA-N

>  <name>  (606) 
C2413-P308

>  <HIPPO Pose ID>  (606) 
370411

>  <Energy>  (606) 
45.509044

>  <exports>  (606) 
['/opt/xchem-fragalysis-2/maxwin/BulkDock/OUTPUTS/openbind_a71ev2a_c1_knitwork_impure_165VXJF.sdf', '/opt/xchem-fragalysis-2/maxwin/BulkDock/OUTPUTS/openbind_a71ev2a_c1_knitwork_impure_1B07QS4.sdf', '/opt/xchem-fragalysis-2/maxwin/BulkDock/OUTPUTS/openbind_a71ev2a_c1_knitwork_impure_1B07X5R.sdf', '/opt/xchem-fragalysis-2/maxwin/openbind-hippo/a71ev2a/openbind_a71ev2a_c1_scaffold_products.sdf', '/opt/xchem-fragalysis-2/maxwin/openbind-hippo/a71ev2a/cycle_01/bulkdock/openbind_a71ev2a_c1_scaffold_products.sdf', '/opt/xchem-fragalysis-2/maxwin/openbind-hippo/a71ev2a/cycle_01/bulkdock/openbind_a71ev2a_c1_scaffolds.sdf']

>  <fragmenstein_runtime>  (606) 
3.898047

$$$$
C4781-P264
     RDKit          3D

 10 11  0  0  0  0  0  0  0  0999 V2000
    6.9557   12.8957   25.4369 C   0  0  0  0  0  0  0  0  0  0  0  0
    6.9379   11.5618   25.3440 C   0  0  0  0  0  0  0  0  0  0  0  0
    7.7662   10.7123   24.5739 C   0  0  0  0  0  0  0  0  0  0  0  0
    8.7419   11.1384   23.6386 C   0  0  0  0  0  0  0  0  0  0  0  0
    9.2507    9.9826   23.1074 C   0  0  0  0  0  0  0  0  0  0  0  0
    8.6267    8.9682   23.7530 N   0  0  0  0  0  0  0  0  0  0  0  0
    7.7112    9.3779   24.6435 N   0  0  0  0  0  0  0  0  0  0  0  0
    5.8689   10.9477   26.1870 C   0  0  0  0  0  0  0  0  0  0  0  0
    5.0455   12.1573   26.6201 C   0  0  0  0  0  0  0  0  0  0  0  0
    5.9155   13.3882   26.3793 C   0  0  0  0  0  0  0  0  0  0  0  0
  1  2  2  0
  2  3  1  0
  3  4  1  0
  4  5  2  0
  5  6  1  0
  6  7  1  0
  2  8  1  0
  8  9  1  0
  9 10  1  0
 10  1  1  0
  7  3  2  0
M  END
>  <ref_pdb>  (607) 
A4012a

>  <subsites>  (607) 
1 - Active Site

>  <HIPPO Compound ID>  (607) 
88601

>  <energy_score>  (607) 
-11.518514

>  <fragmenstein_mode>  (607) 
expansion

>  <scratch_subdir>  (607) 
/opt/xchem-fragalysis-2/maxwin/BulkDock/SCRATCH/512200/C4781-P264

>  <smiles>  (607) 
C1=C(c2cc[nH]n2)CCC1

>  <alias>  (607) 
C4781-P264

>  <ref_mols>  (607) 
A4012a,A0556a

>  <inspiration_score>  (607) 
None

>  <tags>  (607) 
BulkDock Fragalysis export,fragmenstein_placed,openbind_a71ev2a_c1_knitwork_impure,openbind_a71ev2a_c1_scaffolds

>  <fragmenstein_outcome>  (607) 
acceptable

>  <fragmenstein_error>  (607) 


>  <distance_score>  (607) 
0.835748

>  <inchikey>  (607) 
GHUWQZDUXFABRG-UHFFFAOYSA-N

>  <name>  (607) 
C4781-P264

>  <HIPPO Pose ID>  (607) 
371569

>  <Energy>  (607) 
6.489587

>  <exports>  (607) 
['/opt/xchem-fragalysis-2/maxwin/BulkDock/OUTPUTS/openbind_a71ev2a_c1_knitwork_impure_165VXJF.sdf', '/opt/xchem-fragalysis-2/maxwin/BulkDock/OUTPUTS/openbind_a71ev2a_c1_knitwork_impure_1B07QS4.sdf', '/opt/xchem-fragalysis-2/maxwin/BulkDock/OUTPUTS/openbind_a71ev2a_c1_knitwork_impure_1B07X5R.sdf', '/opt/xchem-fragalysis-2/maxwin/openbind-hippo/a71ev2a/openbind_a71ev2a_c1_scaffold_products.sdf', '/opt/xchem-fragalysis-2/maxwin/openbind-hippo/a71ev2a/cycle_01/bulkdock/openbind_a71ev2a_c1_scaffold_products.sdf', '/opt/xchem-fragalysis-2/maxwin/openbind-hippo/a71ev2a/cycle_01/bulkdock/openbind_a71ev2a_c1_scaffolds.sdf']

>  <fragmenstein_runtime>  (607) 
3.846841

$$$$
C6791-P185
     RDKit          3D

 12 13  0  0  0  0  0  0  0  0999 V2000
    9.1421   10.4178   23.6062 C   0  0  0  0  0  0  0  0  0  0  0  0
    9.5115   11.6762   23.1794 C   0  0  0  0  0  0  0  0  0  0  0  0
    8.9068   12.7587   23.7828 C   0  0  0  0  0  0  0  0  0  0  0  0
    9.2864   14.0596   23.5213 N   0  0  0  0  0  0  0  0  0  0  0  0
    8.7936   14.7506   22.3195 C   0  0  0  0  0  0  0  0  0  0  0  0
    9.8033   14.8107   21.1675 C   0  0  0  0  0  0  0  0  0  0  0  0
   11.4343   15.4607   21.6417 S   0  0  0  0  0  0  0  0  0  0  0  0
   11.7142   14.3921   23.0711 C   0  0  0  0  0  0  0  0  0  0  0  0
   10.5687   14.4875   24.0723 C   0  0  0  0  0  0  0  0  0  0  0  0
    7.9736   12.5797   24.7303 N   0  0  0  0  0  0  0  0  0  0  0  0
    7.6559   11.3195   25.0547 C   0  0  0  0  0  0  0  0  0  0  0  0
    8.2153   10.2119   24.5562 N   0  0  0  0  0  0  0  0  0  0  0  0
  1  2  2  0
  2  3  1  0
  3  4  1  0
  4  5  1  0
  5  6  1  0
  6  7  1  0
  7  8  1  0
  8  9  1  0
  3 10  2  0
 10 11  1  0
 11 12  2  0
 12  1  1  0
  9  4  1  0
M  END
>  <ref_pdb>  (608) 
A3480a

>  <subsites>  (608) 
1 - Active Site

>  <HIPPO Compound ID>  (608) 
6181

>  <energy_score>  (608) 
-12.557824

>  <fragmenstein_mode>  (608) 
expansion

>  <scratch_subdir>  (608) 
/opt/xchem-fragalysis-2/maxwin/BulkDock/SCRATCH/512200/C6791-P185

>  <smiles>  (608) 
c1cc(N2CCSCC2)ncn1

>  <alias>  (608) 
C6791-P185

>  <ref_mols>  (608) 
A3480a,A1068a

>  <inspiration_score>  (608) 
None

>  <tags>  (608) 
BulkDock Fragalysis export,fragmenstein_placed,openbind_a71ev2a_c1_knitwork_impure,openbind_a71ev2a_c1_scaffolds

>  <fragmenstein_outcome>  (608) 
acceptable

>  <fragmenstein_error>  (608) 


>  <distance_score>  (608) 
0.785251

>  <inchikey>  (608) 
KPKROVRQPATTCI-UHFFFAOYSA-N

>  <name>  (608) 
C6791-P185

>  <HIPPO Pose ID>  (608) 
372263

>  <Energy>  (608) 
14.071936

>  <exports>  (608) 
['/opt/xchem-fragalysis-2/maxwin/BulkDock/OUTPUTS/openbind_a71ev2a_c1_knitwork_impure_165VXJF.sdf', '/opt/xchem-fragalysis-2/maxwin/BulkDock/OUTPUTS/openbind_a71ev2a_c1_knitwork_impure_1B07QS4.sdf', '/opt/xchem-fragalysis-2/maxwin/BulkDock/OUTPUTS/openbind_a71ev2a_c1_knitwork_impure_1B07X5R.sdf', '/opt/xchem-fragalysis-2/maxwin/openbind-hippo/a71ev2a/openbind_a71ev2a_c1_scaffold_products.sdf', '/opt/xchem-fragalysis-2/maxwin/openbind-hippo/a71ev2a/cycle_01/bulkdock/openbind_a71ev2a_c1_scaffold_products.sdf', '/opt/xchem-fragalysis-2/maxwin/openbind-hippo/a71ev2a/cycle_01/bulkdock/openbind_a71ev2a_c1_scaffolds.sdf']

>  <fragmenstein_runtime>  (608) 
1.891778

$$$$
C1814-P138
     RDKit          3D

 16 18  0  0  0  0  0  0  0  0999 V2000
    9.6960   13.0422   22.8469 C   0  0  0  0  0  0  0  0  0  0  0  0
    9.3961   11.7723   23.2041 N   0  0  0  0  0  0  0  0  0  0  0  0
    8.5079   11.5981   24.2030 C   0  0  0  0  0  0  0  0  0  0  0  0
    7.9266   12.6591   24.8847 C   0  0  0  0  0  0  0  0  0  0  0  0
    8.2815   13.9552   24.5063 C   0  0  0  0  0  0  0  0  0  0  0  0
    9.1691   14.1719   23.4544 C   0  0  0  0  0  0  0  0  0  0  0  0
    9.5622   15.5854   23.0812 C   0  0  1  0  0  0  0  0  0  0  0  0
   10.9812   15.8954   23.5744 C   0  0  0  0  0  0  0  0  0  0  0  0
   12.0554   15.3838   22.6202 C   0  0  0  0  0  0  0  0  0  0  0  0
   11.7865   15.8220   21.1855 C   0  0  0  0  0  0  0  0  0  0  0  0
   10.4630   15.3962   20.7418 N   0  0  0  0  0  0  0  0  0  0  0  0
    9.4002   15.9359   21.5880 C   0  0  0  0  0  0  0  0  0  0  0  0
    6.9896   12.4695   26.0329 C   0  0  0  0  0  0  0  0  0  0  0  0
    6.3099   11.1174   26.0804 C   0  0  0  0  0  0  0  0  0  0  0  0
    7.1598    9.9584   25.6040 C   0  0  0  0  0  0  0  0  0  0  0  0
    8.1736   10.1775   24.4977 C   0  0  0  0  0  0  0  0  0  0  0  0
  1  2  2  0
  2  3  1  0
  3  4  2  0
  4  5  1  0
  5  6  2  0
  7  6  1  6
  7  8  1  0
  8  9  1  0
  9 10  1  0
 10 11  1  0
 11 12  1  0
  4 13  1  0
 13 14  1  0
 14 15  1  0
 15 16  1  0
  6  1  1  0
 12  7  1  0
 16  3  1  0
M  END
>  <ref_pdb>  (609) 
A3054a

>  <subsites>  (609) 
1 - Active Site

>  <HIPPO Compound ID>  (609) 
38623

>  <energy_score>  (609) 
-28.299496

>  <fragmenstein_mode>  (609) 
expansion

>  <scratch_subdir>  (609) 
/opt/xchem-fragalysis-2/maxwin/BulkDock/SCRATCH/512200/C1814-P138

>  <smiles>  (609) 
c1nc2c(cc1[C@H]1CCCNC1)CCCC2

>  <alias>  (609) 
C1814-P138

>  <ref_mols>  (609) 
A3054a,A2629a

>  <inspiration_score>  (609) 
None

>  <tags>  (609) 
BulkDock Fragalysis export,fragmenstein_placed,openbind_a71ev2a_c1_knitwork_impure,openbind_a71ev2a_c1_scaffolds

>  <fragmenstein_outcome>  (609) 
acceptable

>  <fragmenstein_error>  (609) 


>  <distance_score>  (609) 
0.998137

>  <inchikey>  (609) 
KQFIZQJHMHSRJU-UHFFFAOYSA-N

>  <name>  (609) 
C1814-P138

>  <HIPPO Pose ID>  (609) 
372306

>  <Energy>  (609) 
44.111495

>  <exports>  (609) 
['/opt/xchem-fragalysis-2/maxwin/BulkDock/OUTPUTS/openbind_a71ev2a_c1_knitwork_impure_165VXJF.sdf', '/opt/xchem-fragalysis-2/maxwin/BulkDock/OUTPUTS/openbind_a71ev2a_c1_knitwork_impure_1B07QS4.sdf', '/opt/xchem-fragalysis-2/maxwin/BulkDock/OUTPUTS/openbind_a71ev2a_c1_knitwork_impure_1B07X5R.sdf', '/opt/xchem-fragalysis-2/maxwin/openbind-hippo/a71ev2a/openbind_a71ev2a_c1_scaffold_products.sdf', '/opt/xchem-fragalysis-2/maxwin/openbind-hippo/a71ev2a/cycle_01/bulkdock/openbind_a71ev2a_c1_scaffold_products.sdf', '/opt/xchem-fragalysis-2/maxwin/openbind-hippo/a71ev2a/cycle_01/bulkdock/openbind_a71ev2a_c1_scaffolds.sdf']

>  <fragmenstein_runtime>  (609) 
4.732954

$$$$
C9436-P106
     RDKit          3D

 25 27  0  0  0  0  0  0  0  0999 V2000
   18.5545   12.7261   27.0494 O   0  0  0  0  0  0  0  0  0  0  0  0
   18.0771   11.7443   27.4646 C   0  0  0  0  0  0  0  0  0  0  0  0
   18.4954   11.1217   28.8202 C   0  0  0  0  0  0  0  0  0  0  0  0
   17.9812    9.7426   29.0047 N   0  0  0  0  0  0  0  0  0  0  0  0
   17.9993    9.3575   30.4201 C   0  0  0  0  0  0  0  0  0  0  0  0
   17.8357    7.8471   30.3663 C   0  0  0  0  0  0  0  0  0  0  0  0
   18.3775    7.4396   29.0011 C   0  0  0  0  0  0  0  0  0  0  0  0
   18.8268    8.7384   28.3473 C   0  0  0  0  0  0  0  0  0  0  0  0
   16.9103   10.8849   26.9153 N   0  0  0  0  0  0  0  0  0  0  0  0
   16.0287   11.1080   25.7944 C   0  0  0  0  0  0  0  0  0  0  0  0
   15.1000   12.3310   25.9287 C   0  0  2  0  0  0  0  0  0  0  0  0
   14.7948   12.6798   27.4014 C   0  0  0  0  0  0  0  0  0  0  0  0
   15.8304   13.3735   28.0693 O   0  0  0  0  0  0  0  0  0  0  0  0
   13.7882   12.1972   25.2909 N   0  0  0  0  0  0  0  0  0  0  0  0
   12.9420   10.9526   25.0057 C   0  0  0  0  0  0  0  0  0  0  0  0
   13.1830    9.8250   25.1609 O   0  0  0  0  0  0  0  0  0  0  0  0
   11.5470   11.2504   24.5471 C   0  0  0  0  0  0  0  0  0  0  0  0
   10.7819   10.2159   23.9637 C   0  0  0  0  0  0  0  0  0  0  0  0
    9.4230   10.3725   23.7142 C   0  0  0  0  0  0  0  0  0  0  0  0
    8.7713   11.5623   24.0166 C   0  0  0  0  0  0  0  0  0  0  0  0
    9.5395   12.5617   24.5982 C   0  0  0  0  0  0  0  0  0  0  0  0
    9.2231   13.8342   24.9508 N   0  0  0  0  0  0  0  0  0  0  0  0
   10.1166   14.4115   25.7772 N   0  0  0  0  0  0  0  0  0  0  0  0
   11.1394   13.5651   25.7247 C   0  0  0  0  0  0  0  0  0  0  0  0
   10.8793   12.4258   24.9275 C   0  0  0  0  0  0  0  0  0  0  0  0
  1  2  2  0
  2  3  1  0
  3  4  1  0
  4  5  1  0
  5  6  1  0
  6  7  1  0
  7  8  1  0
  2  9  1  0
  9 10  1  0
 11 10  1  1
 11 12  1  0
 12 13  1  0
 11 14  1  0
 14 15  1  0
 15 16  2  0
 15 17  1  0
 17 18  2  0
 18 19  1  0
 19 20  2  0
 20 21  1  0
 21 22  1  0
 22 23  1  0
 23 24  2  0
 24 25  1  0
  8  4  1  0
 25 17  1  0
 25 21  2  0
M  END
>  <ref_pdb>  (610) 
A1140a

>  <subsites>  (610) 
1 - Active Site,2 - A3977/A/202/1

>  <HIPPO Compound ID>  (610) 
33929

>  <energy_score>  (610) 
-10.220842

>  <fragmenstein_mode>  (610) 
expansion

>  <scratch_subdir>  (610) 
/opt/xchem-fragalysis-2/maxwin/BulkDock/SCRATCH/512200/C9436-P106

>  <smiles>  (610) 
O=C(CN1CCCC1)NC[C@H](CO)NC(=O)c1cccc2[nH]ncc12

>  <alias>  (610) 
C9436-P106

>  <ref_mols>  (610) 
A1140a,A0497a

>  <inspiration_score>  (610) 
None

>  <tags>  (610) 
BulkDock Fragalysis export,fragmenstein_placed,openbind_a71ev2a_c1_knitwork_impure,openbind_a71ev2a_c1_scaffolds

>  <fragmenstein_outcome>  (610) 
acceptable

>  <fragmenstein_error>  (610) 


>  <distance_score>  (610) 
0.77402

>  <inchikey>  (610) 
RQPYZWIDBNQYDN-UHFFFAOYSA-N

>  <name>  (610) 
C9436-P106

>  <HIPPO Pose ID>  (610) 
372516

>  <Energy>  (610) 
122.432875

>  <exports>  (610) 
['/opt/xchem-fragalysis-2/maxwin/BulkDock/OUTPUTS/openbind_a71ev2a_c1_knitwork_impure_165VXJF.sdf', '/opt/xchem-fragalysis-2/maxwin/BulkDock/OUTPUTS/openbind_a71ev2a_c1_knitwork_impure_1B07QS4.sdf', '/opt/xchem-fragalysis-2/maxwin/BulkDock/OUTPUTS/openbind_a71ev2a_c1_knitwork_impure_1B07X5R.sdf', '/opt/xchem-fragalysis-2/maxwin/openbind-hippo/a71ev2a/openbind_a71ev2a_c1_scaffold_products.sdf', '/opt/xchem-fragalysis-2/maxwin/openbind-hippo/a71ev2a/cycle_01/bulkdock/openbind_a71ev2a_c1_scaffold_products.sdf', '/opt/xchem-fragalysis-2/maxwin/openbind-hippo/a71ev2a/cycle_01/bulkdock/openbind_a71ev2a_c1_scaffolds.sdf']

>  <fragmenstein_runtime>  (610) 
8.795976

$$$$
C9559-P183
     RDKit          3D

  9  9  0  0  0  0  0  0  0  0999 V2000
   10.0609   14.5253   26.2020 O   0  0  0  0  0  0  0  0  0  0  0  0
   10.4105   13.7965   25.2748 C   0  0  0  0  0  0  0  0  0  0  0  0
    9.4472   12.9892   24.4503 C   0  0  0  0  0  0  0  0  0  0  0  0
    8.8234   13.8766   23.3908 C   0  0  0  0  0  0  0  0  0  0  0  0
    9.7487   14.3802   22.3922 N   0  0  0  0  0  0  0  0  0  0  0  0
    9.3946   14.8790   21.1751 C   0  0  0  0  0  0  0  0  0  0  0  0
   10.5714   15.1611   20.5263 C   0  0  0  0  0  0  0  0  0  0  0  0
   11.5786   14.8712   21.4642 C   0  0  0  0  0  0  0  0  0  0  0  0
   11.0814   14.3996   22.6130 N   0  0  0  0  0  0  0  0  0  0  0  0
  1  2  2  0
  2  3  1  0
  3  4  1  0
  4  5  1  0
  5  6  1  0
  6  7  2  0
  7  8  1  0
  8  9  2  0
  9  5  1  0
M  END
>  <ref_pdb>  (611) 
A3436a

>  <subsites>  (611) 
1 - Active Site

>  <HIPPO Compound ID>  (611) 
5358

>  <energy_score>  (611) 
-9.658435

>  <fragmenstein_mode>  (611) 
expansion

>  <scratch_subdir>  (611) 
/opt/xchem-fragalysis-2/maxwin/BulkDock/SCRATCH/512200/C9559-P183

>  <smiles>  (611) 
O=CCCn1cccn1

>  <alias>  (611) 
C9559-P183

>  <ref_mols>  (611) 
A4445b,A3436a

>  <inspiration_score>  (611) 
None

>  <tags>  (611) 
BulkDock Fragalysis export,fragmenstein_placed,openbind_a71ev2a_c1_knitwork_impure,openbind_a71ev2a_c1_scaffolds

>  <fragmenstein_outcome>  (611) 
acceptable

>  <fragmenstein_error>  (611) 


>  <distance_score>  (611) 
0.899889

>  <inchikey>  (611) 
PLKRCIBWWXFPQS-UHFFFAOYSA-N

>  <name>  (611) 
C9559-P183

>  <HIPPO Pose ID>  (611) 
372962

>  <Energy>  (611) 
-8.009155

>  <exports>  (611) 
['/opt/xchem-fragalysis-2/maxwin/BulkDock/OUTPUTS/openbind_a71ev2a_c1_knitwork_impure_165VXJF.sdf', '/opt/xchem-fragalysis-2/maxwin/BulkDock/OUTPUTS/openbind_a71ev2a_c1_knitwork_impure_1B07QS4.sdf', '/opt/xchem-fragalysis-2/maxwin/BulkDock/OUTPUTS/openbind_a71ev2a_c1_knitwork_impure_1B07X5R.sdf', '/opt/xchem-fragalysis-2/maxwin/openbind-hippo/a71ev2a/openbind_a71ev2a_c1_scaffold_products.sdf', '/opt/xchem-fragalysis-2/maxwin/openbind-hippo/a71ev2a/cycle_01/bulkdock/openbind_a71ev2a_c1_scaffold_products.sdf', '/opt/xchem-fragalysis-2/maxwin/openbind-hippo/a71ev2a/cycle_01/bulkdock/openbind_a71ev2a_c1_scaffolds.sdf']

>  <fragmenstein_runtime>  (611) 
0.697487

$$$$
C17783-P174
     RDKit          3D

 15 15  0  0  0  0  0  0  0  0999 V2000
    7.0637   12.6411   24.8662 C   0  0  0  0  0  0  0  0  0  0  0  0
    8.1603   11.6521   24.5384 C   0  0  0  0  0  0  0  0  0  0  0  0
    7.5618   10.5056   24.0894 F   0  0  0  0  0  0  0  0  0  0  0  0
    8.7610   11.2817   25.6916 F   0  0  0  0  0  0  0  0  0  0  0  0
    9.1990   12.0446   23.4986 C   0  0  0  0  0  0  0  0  0  0  0  0
    9.6901   13.4826   23.5656 C   0  0  0  0  0  0  0  0  0  0  0  0
    9.4787   14.1864   24.4727 O   0  0  0  0  0  0  0  0  0  0  0  0
   10.4012   13.7703   22.2100 N   0  0  0  0  0  0  0  0  0  0  0  0
   10.9115   15.0111   21.6598 C   0  0  0  0  0  0  0  0  0  0  0  0
   12.3243   14.8657   21.1041 C   0  0  0  0  0  0  0  0  0  0  0  0
   12.8387   16.1132   20.4754 C   0  0  0  0  0  0  0  0  0  0  0  0
   13.6280   17.1245   20.9823 C   0  0  0  0  0  0  0  0  0  0  0  0
   13.9159   18.0641   20.0285 N   0  0  0  0  0  0  0  0  0  0  0  0
   13.3472   17.6140   18.9347 C   0  0  0  0  0  0  0  0  0  0  0  0
   12.6502   16.4565   19.1571 N   0  0  0  0  0  0  0  0  0  0  0  0
  1  2  1  0
  2  3  1  0
  2  4  1  0
  2  5  1  0
  5  6  1  0
  6  7  2  0
  6  8  1  0
  8  9  1  0
  9 10  1  0
 10 11  1  0
 11 12  2  0
 12 13  1  0
 13 14  2  0
 14 15  1  0
 15 11  1  0
M  END
>  <ref_pdb>  (612) 
A3371a

>  <subsites>  (612) 
1 - Active Site,5 - A3181/A/202/1

>  <HIPPO Compound ID>  (612) 
8052

>  <energy_score>  (612) 
-5.541678

>  <fragmenstein_mode>  (612) 
expansion

>  <scratch_subdir>  (612) 
/opt/xchem-fragalysis-2/maxwin/BulkDock/SCRATCH/512200/C17783-P174

>  <smiles>  (612) 
CC(F)(F)CC(=O)NCCc1cnc[nH]1

>  <alias>  (612) 
C17783-P174

>  <ref_mols>  (612) 
A3181b,A3568a,A3371a

>  <inspiration_score>  (612) 
None

>  <tags>  (612) 
BulkDock Fragalysis export,fragmenstein_placed,openbind_a71ev2a_c1_knitwork_impure,openbind_a71ev2a_c1_scaffolds

>  <fragmenstein_outcome>  (612) 
acceptable

>  <fragmenstein_error>  (612) 


>  <distance_score>  (612) 
0.889648

>  <inchikey>  (612) 
BYSVFNXGWBOSLW-UHFFFAOYSA-N

>  <name>  (612) 
C17783-P174

>  <HIPPO Pose ID>  (612) 
373385

>  <Energy>  (612) 
-0.936401

>  <exports>  (612) 
['/opt/xchem-fragalysis-2/maxwin/BulkDock/OUTPUTS/openbind_a71ev2a_c1_knitwork_impure_165VXJF.sdf', '/opt/xchem-fragalysis-2/maxwin/BulkDock/OUTPUTS/openbind_a71ev2a_c1_knitwork_impure_1B07QS4.sdf', '/opt/xchem-fragalysis-2/maxwin/BulkDock/OUTPUTS/openbind_a71ev2a_c1_knitwork_impure_1B07X5R.sdf', '/opt/xchem-fragalysis-2/maxwin/openbind-hippo/a71ev2a/openbind_a71ev2a_c1_scaffold_products.sdf', '/opt/xchem-fragalysis-2/maxwin/openbind-hippo/a71ev2a/cycle_01/bulkdock/openbind_a71ev2a_c1_scaffold_products.sdf', '/opt/xchem-fragalysis-2/maxwin/openbind-hippo/a71ev2a/cycle_01/bulkdock/openbind_a71ev2a_c1_scaffolds.sdf']

>  <fragmenstein_runtime>  (612) 
2.399588

$$$$
C2279-P174
     RDKit          3D

 18 18  0  0  0  0  0  0  0  0999 V2000
   14.6796   18.8913   20.3793 C   0  0  0  0  0  0  0  0  0  0  0  0
   13.6037   18.0794   19.6959 C   0  0  0  0  0  0  0  0  0  0  0  0
   14.0635   17.7090   18.4746 F   0  0  0  0  0  0  0  0  0  0  0  0
   12.5381   18.9000   19.4813 F   0  0  0  0  0  0  0  0  0  0  0  0
   13.1653   16.8414   20.4668 C   0  0  0  0  0  0  0  0  0  0  0  0
   12.0941   16.0957   19.6604 C   0  0  0  0  0  0  0  0  0  0  0  0
   11.5344   14.8313   20.3075 C   0  0  0  0  0  0  0  0  0  0  0  0
   10.7229   15.1144   21.5641 C   0  0  0  0  0  0  0  0  0  0  0  0
   10.5086   16.1955   21.9481 O   0  0  0  0  0  0  0  0  0  0  0  0
   10.3863   13.7381   22.1965 N   0  0  0  0  0  0  0  0  0  0  0  0
    9.8003   13.4114   23.4802 C   0  0  0  0  0  0  0  0  0  0  0  0
    8.7843   14.4835   23.8990 C   0  0  0  0  0  0  0  0  0  0  0  0
   10.9638   13.4006   24.4723 C   0  0  0  0  0  0  0  0  0  0  0  0
    9.1976   12.0252   23.4698 C   0  0  0  0  0  0  0  0  0  0  0  0
    9.6993   10.9595   22.8768 N   0  0  0  0  0  0  0  0  0  0  0  0
    8.9651    9.8882   23.3127 C   0  0  0  0  0  0  0  0  0  0  0  0
    7.9756   10.3021   24.1682 C   0  0  0  0  0  0  0  0  0  0  0  0
    8.0998   11.6620   24.2228 N   0  0  0  0  0  0  0  0  0  0  0  0
  1  2  1  0
  2  3  1  0
  2  4  1  0
  2  5  1  0
  5  6  1  0
  6  7  1  0
  7  8  1  0
  8  9  2  0
  8 10  1  0
 10 11  1  0
 11 12  1  0
 11 13  1  0
 11 14  1  0
 14 15  2  0
 15 16  1  0
 16 17  2  0
 17 18  1  0
 18 14  1  0
M  END
>  <ref_pdb>  (613) 
A3371a

>  <subsites>  (613) 
1 - Active Site,5 - A3181/A/202/1

>  <HIPPO Compound ID>  (613) 
8468

>  <energy_score>  (613) 
-21.704187

>  <fragmenstein_mode>  (613) 
expansion

>  <scratch_subdir>  (613) 
/opt/xchem-fragalysis-2/maxwin/BulkDock/SCRATCH/512200/C2279-P174

>  <smiles>  (613) 
CC(F)(F)CCCC(=O)NC(C)(C)c1ncc[nH]1

>  <alias>  (613) 
C2279-P174

>  <ref_mols>  (613) 
A3181b,A3568a,A3371a

>  <inspiration_score>  (613) 
None

>  <tags>  (613) 
BulkDock Fragalysis export,fragmenstein_placed,openbind_a71ev2a_c1_knitwork_impure,openbind_a71ev2a_c1_scaffolds

>  <fragmenstein_outcome>  (613) 
acceptable

>  <fragmenstein_error>  (613) 


>  <distance_score>  (613) 
0.946801

>  <inchikey>  (613) 
RDBFNHFBDWYSQG-UHFFFAOYSA-N

>  <name>  (613) 
C2279-P174

>  <HIPPO Pose ID>  (613) 
373394

>  <Energy>  (613) 
10.187282

>  <exports>  (613) 
['/opt/xchem-fragalysis-2/maxwin/BulkDock/OUTPUTS/openbind_a71ev2a_c1_knitwork_impure_165VXJF.sdf', '/opt/xchem-fragalysis-2/maxwin/BulkDock/OUTPUTS/openbind_a71ev2a_c1_knitwork_impure_1B07QS4.sdf', '/opt/xchem-fragalysis-2/maxwin/BulkDock/OUTPUTS/openbind_a71ev2a_c1_knitwork_impure_1B07X5R.sdf', '/opt/xchem-fragalysis-2/maxwin/openbind-hippo/a71ev2a/openbind_a71ev2a_c1_scaffold_products.sdf', '/opt/xchem-fragalysis-2/maxwin/openbind-hippo/a71ev2a/cycle_01/bulkdock/openbind_a71ev2a_c1_scaffold_products.sdf', '/opt/xchem-fragalysis-2/maxwin/openbind-hippo/a71ev2a/cycle_01/bulkdock/openbind_a71ev2a_c1_scaffolds.sdf']

>  <fragmenstein_runtime>  (613) 
5.183282

$$$$
C901-P106
     RDKit          3D

 23 26  0  0  0  0  0  0  0  0999 V2000
   26.6807   16.3172   24.0328 O   0  0  0  0  0  0  0  0  0  0  0  0
   25.6113   16.7377   24.2581 C   0  0  0  0  0  0  0  0  0  0  0  0
   25.2632   18.2182   24.1516 C   0  0  0  0  0  0  0  0  0  0  0  0
   24.3777   18.5290   22.9440 C   0  0  0  0  0  0  0  0  0  0  0  0
   24.9574   19.6704   22.1429 C   0  0  0  0  0  0  0  0  0  0  0  0
   24.5557   21.0039   22.3818 C   0  0  0  0  0  0  0  0  0  0  0  0
   25.1451   22.0651   21.6850 C   0  0  0  0  0  0  0  0  0  0  0  0
   26.1281   21.7636   20.7670 C   0  0  0  0  0  0  0  0  0  0  0  0
   26.5252   20.4692   20.5321 C   0  0  0  0  0  0  0  0  0  0  0  0
   25.9612   19.4036   21.1980 C   0  0  0  0  0  0  0  0  0  0  0  0
   27.5166   20.3883   19.6068 O   0  0  0  0  0  0  0  0  0  0  0  0
   27.6535   21.7725   19.2360 C   0  0  0  0  0  0  0  0  0  0  0  0
   26.8143   22.6605   20.0082 O   0  0  0  0  0  0  0  0  0  0  0  0
   24.3374   16.0203   24.7892 N   0  0  0  0  0  0  0  0  0  0  0  0
   24.1075   14.7088   25.0442 C   0  0  0  0  0  0  0  0  0  0  0  0
   25.0366   13.6542   24.9651 C   0  0  0  0  0  0  0  0  0  0  0  0
   24.3252   12.5269   25.2979 C   0  0  0  0  0  0  0  0  0  0  0  0
   23.0648   12.9627   25.5953 N   0  0  0  0  0  0  0  0  0  0  0  0
   21.9529   12.0739   25.9788 C   0  0  0  0  0  0  0  0  0  0  0  0
   21.0124   12.6840   27.0535 C   0  0  0  0  0  0  0  0  0  0  0  0
   20.9304   11.2699   27.6650 C   0  0  0  0  0  0  0  0  0  0  0  0
   22.3226   11.0139   27.0499 C   0  0  0  0  0  0  0  0  0  0  0  0
   22.9065   14.2897   25.4410 N   0  0  0  0  0  0  0  0  0  0  0  0
  1  2  2  0
  2  3  1  0
  3  4  1  0
  4  5  1  0
  5  6  2  0
  6  7  1  0
  7  8  2  0
  8  9  1  0
  9 10  2  0
  9 11  1  0
 11 12  1  0
 12 13  1  0
  2 14  1  0
 14 15  1  0
 15 16  1  0
 16 17  2  0
 17 18  1  0
 18 19  1  0
 19 20  1  0
 20 21  1  0
 21 22  1  0
 18 23  1  0
 10  5  1  0
 23 15  2  0
 13  8  1  0
 22 19  1  0
M  END
>  <ref_pdb>  (614) 
A1140a

>  <subsites>  (614) 
1 - Active Site,5 - A3181/A/202/1

>  <HIPPO Compound ID>  (614) 
8923

>  <energy_score>  (614) 
-49.843064

>  <fragmenstein_mode>  (614) 
expansion

>  <scratch_subdir>  (614) 
/opt/xchem-fragalysis-2/maxwin/BulkDock/SCRATCH/512200/C901-P106

>  <smiles>  (614) 
O=C(CCc1ccc2c(c1)OCO2)Nc1ccn(C2CCC2)n1

>  <alias>  (614) 
C901-P106

>  <ref_mols>  (614) 
A0351b,A1140a

>  <inspiration_score>  (614) 
None

>  <tags>  (614) 
BulkDock Fragalysis export,fragmenstein_placed,openbind_a71ev2a_c1_knitwork_impure,openbind_a71ev2a_c1_scaffolds

>  <fragmenstein_outcome>  (614) 
acceptable

>  <fragmenstein_error>  (614) 


>  <distance_score>  (614) 
0.987098

>  <inchikey>  (614) 
TZNQIOOJWDMLNH-UHFFFAOYSA-N

>  <name>  (614) 
C901-P106

>  <HIPPO Pose ID>  (614) 
373907

>  <Energy>  (614) 
3.532832

>  <exports>  (614) 
['/opt/xchem-fragalysis-2/maxwin/BulkDock/OUTPUTS/openbind_a71ev2a_c1_knitwork_impure_165VXJF.sdf', '/opt/xchem-fragalysis-2/maxwin/BulkDock/OUTPUTS/openbind_a71ev2a_c1_knitwork_impure_1B07QS4.sdf', '/opt/xchem-fragalysis-2/maxwin/BulkDock/OUTPUTS/openbind_a71ev2a_c1_knitwork_impure_1B07X5R.sdf', '/opt/xchem-fragalysis-2/maxwin/openbind-hippo/a71ev2a/openbind_a71ev2a_c1_scaffold_products.sdf', '/opt/xchem-fragalysis-2/maxwin/openbind-hippo/a71ev2a/cycle_01/bulkdock/openbind_a71ev2a_c1_scaffold_products.sdf', '/opt/xchem-fragalysis-2/maxwin/openbind-hippo/a71ev2a/cycle_01/bulkdock/openbind_a71ev2a_c1_scaffolds.sdf']

>  <fragmenstein_runtime>  (614) 
29.395138

$$$$
C7479-P337
     RDKit          3D

 23 24  0  0  0  0  0  0  0  0999 V2000
    3.3797   12.3938   18.2338 C   0  0  0  0  0  0  0  0  0  0  0  0
    3.2922   12.5780   19.7505 C   0  0  0  0  0  0  0  0  0  0  0  0
    2.2831   11.5980   20.3498 C   0  0  0  0  0  0  0  0  0  0  0  0
    2.9517   13.9737   20.1266 C   0  0  0  0  0  0  0  0  0  0  0  0
    1.9688   14.5719   19.3912 O   0  0  0  0  0  0  0  0  0  0  0  0
    1.8766   15.8184   19.9058 C   0  0  0  0  0  0  0  0  0  0  0  0
    2.6821   16.0728   20.9159 N   0  0  0  0  0  0  0  0  0  0  0  0
    3.3554   14.8736   21.1006 C   0  0  0  0  0  0  0  0  0  0  0  0
    4.3177   14.6963   22.2326 C   0  0  0  0  0  0  0  0  0  0  0  0
    5.5340   15.4375   21.9224 N   0  0  0  0  0  0  0  0  0  0  0  0
    7.0001   14.7197   22.2617 S   0  0  0  0  0  0  0  0  0  0  0  0
    6.7754   13.3275   21.8924 O   0  0  0  0  0  0  0  0  0  0  0  0
    7.9339   15.4222   21.4096 O   0  0  0  0  0  0  0  0  0  0  0  0
    7.0220   15.0515   23.7570 N   0  0  0  0  0  0  0  0  0  0  0  0
    8.4112   14.8328   24.3747 S   0  0  2  0  0  0  0  0  0  0  0  0
    8.2745   15.3623   26.0648 C   0  0  0  0  0  0  0  0  0  0  0  0
    9.6453   15.4346   23.9136 O   0  0  0  0  0  0  0  0  0  0  0  0
    8.7325   13.0774   24.5698 C   0  0  0  0  0  0  0  0  0  0  0  0
    9.4759   12.5151   23.3699 C   0  0  0  0  0  0  0  0  0  0  0  0
    9.7025   11.0230   23.4434 C   0  0  0  0  0  0  0  0  0  0  0  0
    8.6707   10.1709   24.1409 C   0  0  0  0  0  0  0  0  0  0  0  0
    7.7943   10.8381   25.1797 C   0  0  0  0  0  0  0  0  0  0  0  0
    7.4718   12.2867   24.9015 C   0  0  0  0  0  0  0  0  0  0  0  0
  1  2  1  0
  2  3  1  0
  2  4  1  0
  4  5  1  0
  5  6  1  0
  6  7  2  0
  7  8  1  0
  8  9  1  0
  9 10  1  0
 10 11  1  0
 11 12  2  0
 11 13  2  0
 11 14  1  0
 14 15  2  0
 15 16  1  1
 15 17  2  0
 15 18  1  0
 18 19  1  0
 19 20  1  0
 20 21  1  0
 21 22  1  0
 22 23  1  0
  8  4  2  0
 23 18  1  0
M  END
>  <ref_pdb>  (615) 
A4214b

>  <subsites>  (615) 
1 - Active Site

>  <HIPPO Compound ID>  (615) 
28778

>  <energy_score>  (615) 
-105.574237

>  <fragmenstein_mode>  (615) 
expansion

>  <scratch_subdir>  (615) 
/opt/xchem-fragalysis-2/maxwin/BulkDock/SCRATCH/512200/C7479-P337

>  <smiles>  (615) 
CC(C)c1ocnc1CNS(=O)(=O)N=[S@](C)(=O)C1CCCCC1

>  <alias>  (615) 
C7479-P337

>  <ref_mols>  (615) 
A3623a,A4214b

>  <inspiration_score>  (615) 
None

>  <tags>  (615) 
BulkDock Fragalysis export,fragmenstein_placed,openbind_a71ev2a_c1_knitwork_impure,openbind_a71ev2a_c1_scaffolds

>  <fragmenstein_outcome>  (615) 
acceptable

>  <fragmenstein_error>  (615) 


>  <distance_score>  (615) 
0.912135

>  <inchikey>  (615) 
IKGWEUPIBZYKCX-UHFFFAOYSA-N

>  <name>  (615) 
C7479-P337

>  <HIPPO Pose ID>  (615) 
374253

>  <Energy>  (615) 
-239.668915

>  <exports>  (615) 
['/opt/xchem-fragalysis-2/maxwin/BulkDock/OUTPUTS/openbind_a71ev2a_c1_knitwork_impure_165VXJF.sdf', '/opt/xchem-fragalysis-2/maxwin/BulkDock/OUTPUTS/openbind_a71ev2a_c1_knitwork_impure_1B07QS4.sdf', '/opt/xchem-fragalysis-2/maxwin/BulkDock/OUTPUTS/openbind_a71ev2a_c1_knitwork_impure_1B07X5R.sdf', '/opt/xchem-fragalysis-2/maxwin/openbind-hippo/a71ev2a/openbind_a71ev2a_c1_scaffold_products.sdf', '/opt/xchem-fragalysis-2/maxwin/openbind-hippo/a71ev2a/cycle_01/bulkdock/openbind_a71ev2a_c1_scaffold_products.sdf', '/opt/xchem-fragalysis-2/maxwin/openbind-hippo/a71ev2a/cycle_01/bulkdock/openbind_a71ev2a_c1_scaffolds.sdf']

>  <fragmenstein_runtime>  (615) 
4.941235

$$$$
C1386-P339
     RDKit          3D

 16 16  0  0  0  0  0  0  0  0999 V2000
   10.9144   15.6043   19.3872 C   0  0  0  0  0  0  0  0  0  0  0  0
   10.7970   15.2436   20.8673 C   0  0  0  0  0  0  0  0  0  0  0  0
   11.8327   16.0226   21.6803 C   0  0  0  0  0  0  0  0  0  0  0  0
    9.3713   15.5119   21.3646 C   0  0  0  0  0  0  0  0  0  0  0  0
    9.1432   14.9489   22.6731 N   0  0  0  0  0  0  0  0  0  0  0  0
    8.2489   13.7636   23.1166 C   0  0  0  0  0  0  0  0  0  0  0  0
    7.5002   13.1095   22.5035 O   0  0  0  0  0  0  0  0  0  0  0  0
    8.5184   13.5175   24.6008 C   0  0  0  0  0  0  0  0  0  0  0  0
    7.2793   13.8163   25.4661 C   0  0  1  0  0  0  0  0  0  0  0  0
    7.0357   12.6451   26.4291 C   0  0  0  0  0  0  0  0  0  0  0  0
    7.3171   15.1705   26.2380 C   0  0  1  0  0  0  0  0  0  0  0  0
    8.5132   15.3335   27.1961 C   0  0  0  0  0  0  0  0  0  0  0  0
    8.4611   16.6873   27.9034 C   0  0  0  0  0  0  0  0  0  0  0  0
    8.3052   17.8331   26.9094 C   0  0  0  0  0  0  0  0  0  0  0  0
    7.1434   17.6357   26.0543 N   0  0  0  0  0  0  0  0  0  0  0  0
    7.2261   16.3866   25.2948 C   0  0  0  0  0  0  0  0  0  0  0  0
  1  2  1  0
  2  3  1  0
  2  4  1  0
  4  5  1  0
  5  6  1  0
  6  7  2  0
  6  8  1  0
  8  9  1  0
  9 10  1  1
  9 11  1  0
 11 12  1  6
 12 13  1  0
 13 14  1  0
 14 15  1  0
 15 16  1  0
 16 11  1  0
M  END
>  <ref_pdb>  (616) 
A4237b

>  <subsites>  (616) 
1 - Active Site

>  <HIPPO Compound ID>  (616) 
533

>  <energy_score>  (616) 
-30.618182

>  <fragmenstein_mode>  (616) 
expansion

>  <scratch_subdir>  (616) 
/opt/xchem-fragalysis-2/maxwin/BulkDock/SCRATCH/512200/C1386-P339

>  <smiles>  (616) 
CC(C)CNC(=O)C[C@@H](C)[C@H]1CCCNC1

>  <alias>  (616) 
C1386-P339

>  <ref_mols>  (616) 
A1776a,A4237b

>  <inspiration_score>  (616) 
None

>  <tags>  (616) 
BulkDock Fragalysis export,fragmenstein_placed,openbind_a71ev2a_c1_knitwork_impure,openbind_a71ev2a_c1_scaffolds

>  <fragmenstein_outcome>  (616) 
acceptable

>  <fragmenstein_error>  (616) 


>  <distance_score>  (616) 
0.694462

>  <inchikey>  (616) 
CUBOAIJARPZGGJ-UHFFFAOYSA-N

>  <name>  (616) 
C1386-P339

>  <HIPPO Pose ID>  (616) 
374275

>  <Energy>  (616) 
8.629366

>  <exports>  (616) 
['/opt/xchem-fragalysis-2/maxwin/BulkDock/OUTPUTS/openbind_a71ev2a_c1_knitwork_impure_165VXJF.sdf', '/opt/xchem-fragalysis-2/maxwin/BulkDock/OUTPUTS/openbind_a71ev2a_c1_knitwork_impure_1B07QS4.sdf', '/opt/xchem-fragalysis-2/maxwin/BulkDock/OUTPUTS/openbind_a71ev2a_c1_knitwork_impure_1B07X5R.sdf', '/opt/xchem-fragalysis-2/maxwin/openbind-hippo/a71ev2a/openbind_a71ev2a_c1_scaffold_products.sdf', '/opt/xchem-fragalysis-2/maxwin/openbind-hippo/a71ev2a/cycle_01/bulkdock/openbind_a71ev2a_c1_scaffold_products.sdf', '/opt/xchem-fragalysis-2/maxwin/openbind-hippo/a71ev2a/cycle_01/bulkdock/openbind_a71ev2a_c1_scaffolds.sdf']

>  <fragmenstein_runtime>  (616) 
3.438943

$$$$
C36972-P445
     RDKit          3D

 13 13  0  0  0  0  0  0  0  0999 V2000
    9.0528    9.0766   23.2984 C   0  0  0  0  0  0  0  0  0  0  0  0
    8.9579   10.5643   23.5681 C   0  0  0  0  0  0  0  0  0  0  0  0
    8.0965   11.0397   24.7650 C   0  0  0  0  0  0  0  0  0  0  0  0
    6.9348   10.1221   25.1249 C   0  0  0  0  0  0  0  0  0  0  0  0
    6.0170   10.6637   26.2053 C   0  0  0  0  0  0  0  0  0  0  0  0
    7.7214   12.5189   24.5945 C   0  0  0  0  0  0  0  0  0  0  0  0
    8.9818   13.3268   24.3370 C   0  0  0  0  0  0  0  0  0  0  0  0
    9.9394   13.2250   25.1076 O   0  0  0  0  0  0  0  0  0  0  0  0
    8.9721   14.1503   23.0510 C   0  0  0  0  0  0  0  0  0  0  0  0
   10.2501   14.8210   22.8135 N   0  0  0  0  0  0  0  0  0  0  0  0
   10.3167   15.2904   21.3976 C   0  0  0  0  0  0  0  0  0  0  0  0
   11.7848   14.8339   21.3899 C   0  0  0  0  0  0  0  0  0  0  0  0
   11.3384   13.8624   22.4972 C   0  0  0  0  0  0  0  0  0  0  0  0
  1  2  1  0
  2  3  1  0
  3  4  1  0
  4  5  1  0
  3  6  1  0
  6  7  1  0
  7  8  2  0
  7  9  1  0
  9 10  1  0
 10 11  1  0
 11 12  1  0
 12 13  1  0
 13 10  1  0
M  END
>  <ref_pdb>  (617) 
A4715a

>  <subsites>  (617) 
1 - Active Site

>  <HIPPO Compound ID>  (617) 
5691

>  <energy_score>  (617) 
-25.718765

>  <fragmenstein_mode>  (617) 
expansion

>  <scratch_subdir>  (617) 
/opt/xchem-fragalysis-2/maxwin/BulkDock/SCRATCH/512200/C36972-P445

>  <smiles>  (617) 
CCC(CC)CC(=O)CN1CCC1

>  <alias>  (617) 
C36972-P445

>  <ref_mols>  (617) 
A1779a,A4715a

>  <inspiration_score>  (617) 
None

>  <tags>  (617) 
BulkDock Fragalysis export,fragmenstein_placed,openbind_a71ev2a_c1_knitwork_impure,openbind_a71ev2a_c1_scaffolds

>  <fragmenstein_outcome>  (617) 
acceptable

>  <fragmenstein_error>  (617) 


>  <distance_score>  (617) 
0.866775

>  <inchikey>  (617) 
BWURFTTURAXDKM-UHFFFAOYSA-N

>  <name>  (617) 
C36972-P445

>  <HIPPO Pose ID>  (617) 
374294

>  <Energy>  (617) 
57.827687

>  <exports>  (617) 
['/opt/xchem-fragalysis-2/maxwin/BulkDock/OUTPUTS/openbind_a71ev2a_c1_knitwork_impure_165VXJF.sdf', '/opt/xchem-fragalysis-2/maxwin/BulkDock/OUTPUTS/openbind_a71ev2a_c1_knitwork_impure_1B07QS4.sdf', '/opt/xchem-fragalysis-2/maxwin/BulkDock/OUTPUTS/openbind_a71ev2a_c1_knitwork_impure_1B07X5R.sdf', '/opt/xchem-fragalysis-2/maxwin/openbind-hippo/a71ev2a/openbind_a71ev2a_c1_scaffold_products.sdf', '/opt/xchem-fragalysis-2/maxwin/openbind-hippo/a71ev2a/cycle_01/bulkdock/openbind_a71ev2a_c1_scaffold_products.sdf', '/opt/xchem-fragalysis-2/maxwin/openbind-hippo/a71ev2a/cycle_01/bulkdock/openbind_a71ev2a_c1_scaffolds.sdf']

>  <fragmenstein_runtime>  (617) 
2.141907

$$$$
C1390-P242
     RDKit          3D

 17 17  0  0  0  0  0  0  0  0999 V2000
    9.8096   11.4602   23.1645 C   0  0  0  0  0  0  0  0  0  0  0  0
    9.7139   10.8750   24.5443 C   0  0  0  0  0  0  0  0  0  0  0  0
    8.3074   10.8896   25.1235 C   0  0  0  0  0  0  0  0  0  0  0  0
    7.5115   12.2110   25.2012 C   0  0  1  0  0  0  0  0  0  0  0  0
    6.5477   12.1232   26.3095 N   0  0  0  0  0  0  0  0  0  0  0  0
    5.3636   13.0504   26.6899 C   0  0  0  0  0  0  0  0  0  0  0  0
    5.0203   14.0645   26.2288 O   0  0  0  0  0  0  0  0  0  0  0  0
    4.6692   12.3971   27.8954 C   0  0  0  0  0  0  0  0  0  0  0  0
    5.5327   12.5239   29.1558 C   0  0  0  0  0  0  0  0  0  0  0  0
    4.8093   11.9646   30.3785 C   0  0  0  0  0  0  0  0  0  0  0  0
    3.5117   12.6017   30.5692 N   0  0  0  0  0  0  0  0  0  0  0  0
    2.6456   12.4550   29.4035 C   0  0  0  0  0  0  0  0  0  0  0  0
    3.2967   13.0341   28.1516 C   0  0  0  0  0  0  0  0  0  0  0  0
    8.3615   13.5012   25.1802 C   0  0  0  0  0  0  0  0  0  0  0  0
    7.7648   14.5268   25.8184 F   0  0  0  0  0  0  0  0  0  0  0  0
    8.5901   13.9046   23.9085 F   0  0  0  0  0  0  0  0  0  0  0  0
    9.5658   13.3275   25.7686 F   0  0  0  0  0  0  0  0  0  0  0  0
  1  2  1  0
  2  3  1  0
  4  3  1  1
  4  5  1  0
  5  6  1  0
  6  7  2  0
  6  8  1  0
  8  9  1  0
  9 10  1  0
 10 11  1  0
 11 12  1  0
 12 13  1  0
  4 14  1  0
 14 15  1  0
 14 16  1  0
 14 17  1  0
 13  8  1  0
M  END
>  <ref_pdb>  (618) 
A3938a

>  <subsites>  (618) 
1 - Active Site,6 - A0486/A/147/1

>  <HIPPO Compound ID>  (618) 
16890

>  <energy_score>  (618) 
-14.278954

>  <fragmenstein_mode>  (618) 
expansion

>  <scratch_subdir>  (618) 
/opt/xchem-fragalysis-2/maxwin/BulkDock/SCRATCH/512200/C1390-P242

>  <smiles>  (618) 
CCC[C@@H](NC(=O)C1CCNCC1)C(F)(F)F

>  <alias>  (618) 
C1390-P242

>  <ref_mols>  (618) 
A0486a,A3938a

>  <inspiration_score>  (618) 
None

>  <tags>  (618) 
BulkDock Fragalysis export,fragmenstein_placed,openbind_a71ev2a_c1_knitwork_impure,openbind_a71ev2a_c1_scaffolds

>  <fragmenstein_outcome>  (618) 
acceptable

>  <fragmenstein_error>  (618) 


>  <distance_score>  (618) 
0.9417

>  <inchikey>  (618) 
KTRXBMCRTROOIW-UHFFFAOYSA-N

>  <name>  (618) 
C1390-P242

>  <HIPPO Pose ID>  (618) 
374403

>  <Energy>  (618) 
51.702518

>  <exports>  (618) 
['/opt/xchem-fragalysis-2/maxwin/BulkDock/OUTPUTS/openbind_a71ev2a_c1_knitwork_impure_165VXJF.sdf', '/opt/xchem-fragalysis-2/maxwin/BulkDock/OUTPUTS/openbind_a71ev2a_c1_knitwork_impure_1B07QS4.sdf', '/opt/xchem-fragalysis-2/maxwin/BulkDock/OUTPUTS/openbind_a71ev2a_c1_knitwork_impure_1B07X5R.sdf', '/opt/xchem-fragalysis-2/maxwin/openbind-hippo/a71ev2a/openbind_a71ev2a_c1_scaffold_products.sdf', '/opt/xchem-fragalysis-2/maxwin/openbind-hippo/a71ev2a/cycle_01/bulkdock/openbind_a71ev2a_c1_scaffold_products.sdf', '/opt/xchem-fragalysis-2/maxwin/openbind-hippo/a71ev2a/cycle_01/bulkdock/openbind_a71ev2a_c1_scaffolds.sdf']

>  <fragmenstein_runtime>  (618) 
14.736176

$$$$
C2382-P198
     RDKit          3D

 15 15  0  0  0  0  0  0  0  0999 V2000
    6.5591   10.4454   25.4736 C   0  0  0  0  0  0  0  0  0  0  0  0
    7.0825   11.5805   24.5982 C   0  0  0  0  0  0  0  0  0  0  0  0
    8.5257   11.3597   24.1835 C   0  0  0  0  0  0  0  0  0  0  0  0
    6.7954   12.9403   25.2276 C   0  0  0  0  0  0  0  0  0  0  0  0
    7.7355   14.0836   24.8742 C   0  0  0  0  0  0  0  0  0  0  0  0
    8.4127   14.5624   25.8001 O   0  0  0  0  0  0  0  0  0  0  0  0
    7.7503   14.7352   23.4518 C   0  0  0  0  0  0  0  0  0  0  0  0
    6.7779   14.0682   22.4731 C   0  0  0  0  0  0  0  0  0  0  0  0
    7.2116   16.1592   23.7127 C   0  0  0  0  0  0  0  0  0  0  0  0
    9.1073   14.6597   22.8031 N   0  0  0  0  0  0  0  0  0  0  0  0
   10.2623   14.8628   23.6902 C   0  0  0  0  0  0  0  0  0  0  0  0
   11.5955   14.6478   22.9665 C   0  0  0  0  0  0  0  0  0  0  0  0
   11.7257   15.5509   21.7530 C   0  0  0  0  0  0  0  0  0  0  0  0
   10.5315   15.3366   20.8438 C   0  0  0  0  0  0  0  0  0  0  0  0
    9.2270   15.5349   21.6123 C   0  0  0  0  0  0  0  0  0  0  0  0
  1  2  1  0
  2  3  1  0
  2  4  1  0
  4  5  1  0
  5  6  2  0
  5  7  1  0
  7  8  1  0
  7  9  1  0
  7 10  1  0
 10 11  1  0
 11 12  1  0
 12 13  1  0
 13 14  1  0
 14 15  1  0
 15 10  1  0
M  END
>  <ref_pdb>  (619) 
A3618a

>  <subsites>  (619) 
1 - Active Site

>  <HIPPO Compound ID>  (619) 
27893

>  <energy_score>  (619) 
-47.996189

>  <fragmenstein_mode>  (619) 
expansion

>  <scratch_subdir>  (619) 
/opt/xchem-fragalysis-2/maxwin/BulkDock/SCRATCH/512200/C2382-P198

>  <smiles>  (619) 
CC(C)CC(=O)C(C)(C)N1CCCCC1

>  <alias>  (619) 
C2382-P198

>  <ref_mols>  (619) 
A1775a,A3618a

>  <inspiration_score>  (619) 
None

>  <tags>  (619) 
BulkDock Fragalysis export,fragmenstein_placed,openbind_a71ev2a_c1_knitwork_impure,openbind_a71ev2a_c1_scaffolds

>  <fragmenstein_outcome>  (619) 
acceptable

>  <fragmenstein_error>  (619) 


>  <distance_score>  (619) 
0.832459

>  <inchikey>  (619) 
BZLSGPYVTJTSHN-UHFFFAOYSA-N

>  <name>  (619) 
C2382-P198

>  <HIPPO Pose ID>  (619) 
374431

>  <Energy>  (619) 
61.237421

>  <exports>  (619) 
['/opt/xchem-fragalysis-2/maxwin/BulkDock/OUTPUTS/openbind_a71ev2a_c1_knitwork_impure_165VXJF.sdf', '/opt/xchem-fragalysis-2/maxwin/BulkDock/OUTPUTS/openbind_a71ev2a_c1_knitwork_impure_1B07QS4.sdf', '/opt/xchem-fragalysis-2/maxwin/BulkDock/OUTPUTS/openbind_a71ev2a_c1_knitwork_impure_1B07X5R.sdf', '/opt/xchem-fragalysis-2/maxwin/openbind-hippo/a71ev2a/openbind_a71ev2a_c1_scaffold_products.sdf', '/opt/xchem-fragalysis-2/maxwin/openbind-hippo/a71ev2a/cycle_01/bulkdock/openbind_a71ev2a_c1_scaffold_products.sdf', '/opt/xchem-fragalysis-2/maxwin/openbind-hippo/a71ev2a/cycle_01/bulkdock/openbind_a71ev2a_c1_scaffolds.sdf']

>  <fragmenstein_runtime>  (619) 
4.944794

$$$$
C7529-P618
     RDKit          3D

 13 13  0  0  0  0  0  0  0  0999 V2000
   10.5436   13.1925   25.5251 O   0  0  0  0  0  0  0  0  0  0  0  0
    9.6164   13.1341   24.8016 C   0  0  0  0  0  0  0  0  0  0  0  0
    9.0157   14.2183   23.8166 N   0  0  0  0  0  0  0  0  0  0  0  0
    9.4779   15.4862   23.4811 N   0  0  0  0  0  0  0  0  0  0  0  0
   10.8978   15.7063   23.7695 C   0  0  0  0  0  0  0  0  0  0  0  0
   11.8428   14.9786   22.8201 C   0  0  0  0  0  0  0  0  0  0  0  0
   11.5439   15.3376   21.3704 C   0  0  0  0  0  0  0  0  0  0  0  0
   10.0690   15.1160   21.0624 C   0  0  0  0  0  0  0  0  0  0  0  0
    9.1769   15.8361   22.0752 C   0  0  0  0  0  0  0  0  0  0  0  0
    8.6678   11.9235   24.6934 C   0  0  0  0  0  0  0  0  0  0  0  0
    9.1751   10.7550   25.1625 F   0  0  0  0  0  0  0  0  0  0  0  0
    8.3590   11.6961   23.3887 F   0  0  0  0  0  0  0  0  0  0  0  0
    7.2001   12.2867   25.6207 Cl  0  0  0  0  0  0  0  0  0  0  0  0
  1  2  2  0
  2  3  1  0
  3  4  1  0
  4  5  1  0
  5  6  1  0
  6  7  1  0
  7  8  1  0
  8  9  1  0
  2 10  1  0
 10 11  1  0
 10 12  1  0
 10 13  1  0
  9  4  1  0
M  END
>  <ref_pdb>  (620) 
A5425b

>  <subsites>  (620) 
1 - Active Site

>  <HIPPO Compound ID>  (620) 
93118

>  <energy_score>  (620) 
-4.400591

>  <fragmenstein_mode>  (620) 
expansion

>  <scratch_subdir>  (620) 
/opt/xchem-fragalysis-2/maxwin/BulkDock/SCRATCH/512200/C7529-P618

>  <smiles>  (620) 
O=C(NN1CCCCC1)C(F)(F)Cl

>  <alias>  (620) 
C7529-P618

>  <ref_mols>  (620) 
A1445a,A5425b

>  <inspiration_score>  (620) 
None

>  <tags>  (620) 
BulkDock Fragalysis export,fragmenstein_placed,openbind_a71ev2a_c1_knitwork_impure,openbind_a71ev2a_c1_scaffolds

>  <fragmenstein_outcome>  (620) 
acceptable

>  <fragmenstein_error>  (620) 


>  <distance_score>  (620) 
0.897253

>  <inchikey>  (620) 
OKCDMJXQKQAOBD-UHFFFAOYSA-N

>  <name>  (620) 
C7529-P618

>  <HIPPO Pose ID>  (620) 
375731

>  <Energy>  (620) 
130.948917

>  <exports>  (620) 
['/opt/xchem-fragalysis-2/maxwin/BulkDock/OUTPUTS/openbind_a71ev2a_c1_knitwork_impure_165VXJF.sdf', '/opt/xchem-fragalysis-2/maxwin/BulkDock/OUTPUTS/openbind_a71ev2a_c1_knitwork_impure_1B07QS4.sdf', '/opt/xchem-fragalysis-2/maxwin/BulkDock/OUTPUTS/openbind_a71ev2a_c1_knitwork_impure_1B07X5R.sdf', '/opt/xchem-fragalysis-2/maxwin/openbind-hippo/a71ev2a/openbind_a71ev2a_c1_scaffold_products.sdf', '/opt/xchem-fragalysis-2/maxwin/openbind-hippo/a71ev2a/cycle_01/bulkdock/openbind_a71ev2a_c1_scaffold_products.sdf', '/opt/xchem-fragalysis-2/maxwin/openbind-hippo/a71ev2a/cycle_01/bulkdock/openbind_a71ev2a_c1_scaffolds.sdf']

>  <fragmenstein_runtime>  (620) 
2.129786

$$$$
C2408-P439
     RDKit          3D

 15 15  0  0  0  0  0  0  0  0999 V2000
    5.6743   12.0441   26.8647 C   0  0  0  0  0  0  0  0  0  0  0  0
    6.9038   11.3714   26.2667 C   0  0  0  0  0  0  0  0  0  0  0  0
    7.3521   11.9381   24.9091 C   0  0  2  0  0  0  0  0  0  0  0  0
    8.6331   11.2319   24.4634 C   0  0  0  0  0  0  0  0  0  0  0  0
    7.5649   13.4461   24.9707 C   0  0  0  0  0  0  0  0  0  0  0  0
    7.8895   13.9633   26.0495 O   0  0  0  0  0  0  0  0  0  0  0  0
    7.4405   14.3248   23.6816 C   0  0  0  0  0  0  0  0  0  0  0  0
    6.3254   13.8346   22.7431 C   0  0  0  0  0  0  0  0  0  0  0  0
    6.9591   15.7012   24.1932 C   0  0  0  0  0  0  0  0  0  0  0  0
    8.7355   14.3195   22.9310 N   0  0  0  0  0  0  0  0  0  0  0  0
    9.9303   14.5650   23.7543 C   0  0  0  0  0  0  0  0  0  0  0  0
   11.2150   14.3569   22.9493 C   0  0  0  0  0  0  0  0  0  0  0  0
   11.2612   15.2693   21.7354 C   0  0  0  0  0  0  0  0  0  0  0  0
   10.0019   15.0851   20.9065 C   0  0  0  0  0  0  0  0  0  0  0  0
    8.7401   15.2263   21.7586 C   0  0  0  0  0  0  0  0  0  0  0  0
  1  2  1  0
  2  3  1  0
  3  4  1  1
  3  5  1  0
  5  6  2  0
  5  7  1  0
  7  8  1  0
  7  9  1  0
  7 10  1  0
 10 11  1  0
 11 12  1  0
 12 13  1  0
 13 14  1  0
 14 15  1  0
 15 10  1  0
M  END
>  <ref_pdb>  (621) 
A4706a

>  <subsites>  (621) 
1 - Active Site

>  <HIPPO Compound ID>  (621) 
14951

>  <energy_score>  (621) 
-62.403833

>  <fragmenstein_mode>  (621) 
expansion

>  <scratch_subdir>  (621) 
/opt/xchem-fragalysis-2/maxwin/BulkDock/SCRATCH/512200/C2408-P439

>  <smiles>  (621) 
CC[C@H](C)C(=O)C(C)(C)N1CCCCC1

>  <alias>  (621) 
C2408-P439

>  <ref_mols>  (621) 
A1775a,A4706a

>  <inspiration_score>  (621) 
None

>  <tags>  (621) 
BulkDock Fragalysis export,fragmenstein_placed,openbind_a71ev2a_c1_knitwork_impure,openbind_a71ev2a_c1_scaffolds

>  <fragmenstein_outcome>  (621) 
acceptable

>  <fragmenstein_error>  (621) 


>  <distance_score>  (621) 
0.796001

>  <inchikey>  (621) 
WNSGNWHGSWFAHB-UHFFFAOYSA-N

>  <name>  (621) 
C2408-P439

>  <HIPPO Pose ID>  (621) 
376153

>  <Energy>  (621) 
51.246496

>  <exports>  (621) 
['/opt/xchem-fragalysis-2/maxwin/BulkDock/OUTPUTS/openbind_a71ev2a_c1_knitwork_impure_165VXJF.sdf', '/opt/xchem-fragalysis-2/maxwin/BulkDock/OUTPUTS/openbind_a71ev2a_c1_knitwork_impure_1B07QS4.sdf', '/opt/xchem-fragalysis-2/maxwin/BulkDock/OUTPUTS/openbind_a71ev2a_c1_knitwork_impure_1B07X5R.sdf', '/opt/xchem-fragalysis-2/maxwin/openbind-hippo/a71ev2a/openbind_a71ev2a_c1_scaffold_products.sdf', '/opt/xchem-fragalysis-2/maxwin/openbind-hippo/a71ev2a/cycle_01/bulkdock/openbind_a71ev2a_c1_scaffold_products.sdf', '/opt/xchem-fragalysis-2/maxwin/openbind-hippo/a71ev2a/cycle_01/bulkdock/openbind_a71ev2a_c1_scaffolds.sdf']

>  <fragmenstein_runtime>  (621) 
22.775706

$$$$
C38621-P170
     RDKit          3D

 12 12  0  0  0  0  0  0  0  0999 V2000
   10.9910   15.3130   19.5797 C   0  0  0  0  0  0  0  0  0  0  0  0
   11.0937   15.2227   21.0900 C   0  0  0  0  0  0  0  0  0  0  0  0
    9.7308   15.0517   21.7521 C   0  0  0  0  0  0  0  0  0  0  0  0
    9.9398   14.9832   23.1596 O   0  0  0  0  0  0  0  0  0  0  0  0
    8.8226   14.5455   23.9264 C   0  0  0  0  0  0  0  0  0  0  0  0
    8.5708   13.0390   23.8240 C   0  0  2  0  0  0  0  0  0  0  0  0
    7.4549   12.5740   24.7616 C   0  0  0  0  0  0  0  0  0  0  0  0
    7.5132   11.0860   25.1209 C   0  0  0  0  0  0  0  0  0  0  0  0
    8.4073   10.2418   24.2276 C   0  0  0  0  0  0  0  0  0  0  0  0
    9.6416   10.8817   23.9002 N   0  0  0  0  0  0  0  0  0  0  0  0
    9.8227   12.2318   24.0734 C   0  0  0  0  0  0  0  0  0  0  0  0
   10.9049   12.6862   24.4173 O   0  0  0  0  0  0  0  0  0  0  0  0
  1  2  1  0
  2  3  1  0
  3  4  1  0
  4  5  1  0
  6  5  1  1
  6  7  1  0
  7  8  1  0
  8  9  1  0
  9 10  1  0
 10 11  1  0
 11 12  2  0
 11  6  1  0
M  END
>  <ref_pdb>  (622) 
A3579a

>  <subsites>  (622) 
1 - Active Site

>  <HIPPO Compound ID>  (622) 
31471

>  <energy_score>  (622) 
-10.584722

>  <fragmenstein_mode>  (622) 
expansion

>  <scratch_subdir>  (622) 
/opt/xchem-fragalysis-2/maxwin/BulkDock/SCRATCH/512200/C38621-P170

>  <smiles>  (622) 
CCCOC[C@@H]1CCCNC1=O

>  <alias>  (622) 
C38621-P170

>  <ref_mols>  (622) 
A3579a,A1779a

>  <inspiration_score>  (622) 
None

>  <tags>  (622) 
BulkDock Fragalysis export,fragmenstein_placed,openbind_a71ev2a_c1_knitwork_impure,openbind_a71ev2a_c1_scaffolds

>  <fragmenstein_outcome>  (622) 
acceptable

>  <fragmenstein_error>  (622) 


>  <distance_score>  (622) 
0.87067

>  <inchikey>  (622) 
HWNMIYOIZLOAOJ-UHFFFAOYSA-N

>  <name>  (622) 
C38621-P170

>  <HIPPO Pose ID>  (622) 
376513

>  <Energy>  (622) 
-1.303864

>  <exports>  (622) 
['/opt/xchem-fragalysis-2/maxwin/BulkDock/OUTPUTS/openbind_a71ev2a_c1_knitwork_impure_165VXJF.sdf', '/opt/xchem-fragalysis-2/maxwin/BulkDock/OUTPUTS/openbind_a71ev2a_c1_knitwork_impure_1B07QS4.sdf', '/opt/xchem-fragalysis-2/maxwin/BulkDock/OUTPUTS/openbind_a71ev2a_c1_knitwork_impure_1B07X5R.sdf', '/opt/xchem-fragalysis-2/maxwin/openbind-hippo/a71ev2a/openbind_a71ev2a_c1_scaffold_products.sdf', '/opt/xchem-fragalysis-2/maxwin/openbind-hippo/a71ev2a/cycle_01/bulkdock/openbind_a71ev2a_c1_scaffold_products.sdf', '/opt/xchem-fragalysis-2/maxwin/openbind-hippo/a71ev2a/cycle_01/bulkdock/openbind_a71ev2a_c1_scaffolds.sdf']

>  <fragmenstein_runtime>  (622) 
1.984753

$$$$
C3646-P213
     RDKit          3D

 11 12  0  0  0  0  0  0  0  0999 V2000
    7.9520   12.0558   24.8883 C   0  0  0  0  0  0  0  0  0  0  0  0
    7.8620   10.6781   24.7594 C   0  0  0  0  0  0  0  0  0  0  0  0
    6.9974    9.9760   25.5976 C   0  0  0  0  0  0  0  0  0  0  0  0
    6.2861   10.6638   26.5750 C   0  0  0  0  0  0  0  0  0  0  0  0
    5.4155    9.9915   27.5262 C   0  0  0  0  0  0  0  0  0  0  0  0
    4.5496    8.9244   27.4938 C   0  0  0  0  0  0  0  0  0  0  0  0
    4.1164    8.7685   28.8189 C   0  0  0  0  0  0  0  0  0  0  0  0
    4.6610    9.6802   29.6245 N   0  0  0  0  0  0  0  0  0  0  0  0
    5.4705   10.4578   28.8051 O   0  0  0  0  0  0  0  0  0  0  0  0
    6.3918   12.0012   26.7344 N   0  0  0  0  0  0  0  0  0  0  0  0
    7.1899   12.6670   25.8698 C   0  0  0  0  0  0  0  0  0  0  0  0
  1  2  2  0
  2  3  1  0
  3  4  2  0
  4  5  1  0
  5  6  2  0
  6  7  1  0
  7  8  2  0
  8  9  1  0
  4 10  1  0
 10 11  2  0
 11  1  1  0
  9  5  1  0
M  END
>  <ref_pdb>  (623) 
A3548a

>  <subsites>  (623) 
1 - Active Site

>  <HIPPO Compound ID>  (623) 
4560

>  <energy_score>  (623) 
-13.120408

>  <fragmenstein_mode>  (623) 
expansion

>  <scratch_subdir>  (623) 
/opt/xchem-fragalysis-2/maxwin/BulkDock/SCRATCH/512200/C3646-P213

>  <smiles>  (623) 
c1ccc(-c2ccno2)nc1

>  <alias>  (623) 
C3646-P213

>  <ref_mols>  (623) 
A0556a,A3548a,A2629a

>  <inspiration_score>  (623) 
None

>  <tags>  (623) 
BulkDock Fragalysis export,fragmenstein_placed,openbind_a71ev2a_c1_knitwork_impure,openbind_a71ev2a_c1_scaffolds

>  <fragmenstein_outcome>  (623) 
acceptable

>  <fragmenstein_error>  (623) 


>  <distance_score>  (623) 
0.991479

>  <inchikey>  (623) 
BSZJDRPOJAAOSY-UHFFFAOYSA-N

>  <name>  (623) 
C3646-P213

>  <HIPPO Pose ID>  (623) 
376727

>  <Energy>  (623) 
28.475886

>  <exports>  (623) 
['/opt/xchem-fragalysis-2/maxwin/BulkDock/OUTPUTS/openbind_a71ev2a_c1_knitwork_impure_165VXJF.sdf', '/opt/xchem-fragalysis-2/maxwin/BulkDock/OUTPUTS/openbind_a71ev2a_c1_knitwork_impure_1B07QS4.sdf', '/opt/xchem-fragalysis-2/maxwin/BulkDock/OUTPUTS/openbind_a71ev2a_c1_knitwork_impure_1B07X5R.sdf', '/opt/xchem-fragalysis-2/maxwin/openbind-hippo/a71ev2a/openbind_a71ev2a_c1_scaffold_products.sdf', '/opt/xchem-fragalysis-2/maxwin/openbind-hippo/a71ev2a/cycle_01/bulkdock/openbind_a71ev2a_c1_scaffold_products.sdf', '/opt/xchem-fragalysis-2/maxwin/openbind-hippo/a71ev2a/cycle_01/bulkdock/openbind_a71ev2a_c1_scaffolds.sdf']

>  <fragmenstein_runtime>  (623) 
1.780389

$$$$
C8041-P151
     RDKit          3D

 19 19  0  0  0  0  0  0  0  0999 V2000
    9.0913   16.7430   21.5608 C   0  0  0  0  0  0  0  0  0  0  0  0
    9.4261   15.2613   21.4703 C   0  0  1  0  0  0  0  0  0  0  0  0
   10.9012   15.0079   21.1784 C   0  0  0  0  0  0  0  0  0  0  0  0
   11.2846   15.2890   19.7365 C   0  0  0  0  0  0  0  0  0  0  0  0
   10.7839   14.3904   18.8748 F   0  0  0  0  0  0  0  0  0  0  0  0
   10.8893   16.5072   19.3280 F   0  0  0  0  0  0  0  0  0  0  0  0
   12.6261   15.2259   19.6147 F   0  0  0  0  0  0  0  0  0  0  0  0
    8.9908   14.6246   22.7128 N   0  0  0  0  0  0  0  0  0  0  0  0
    7.7747   13.6994   23.0006 C   0  0  0  0  0  0  0  0  0  0  0  0
    6.9805   13.2434   22.2722 O   0  0  0  0  0  0  0  0  0  0  0  0
    7.7269   13.3839   24.5559 C   0  0  0  0  0  0  0  0  0  0  0  0
    8.7315   14.0073   25.2484 F   0  0  0  0  0  0  0  0  0  0  0  0
    6.5903   13.9368   25.0910 F   0  0  0  0  0  0  0  0  0  0  0  0
    7.8044   11.8857   24.8097 C   0  0  0  0  0  0  0  0  0  0  0  0
    6.9051   11.2980   25.7073 C   0  0  0  0  0  0  0  0  0  0  0  0
    6.9399    9.9302   25.8865 C   0  0  0  0  0  0  0  0  0  0  0  0
    7.8108    9.1236   25.2521 N   0  0  0  0  0  0  0  0  0  0  0  0
    8.6958    9.6993   24.4086 C   0  0  0  0  0  0  0  0  0  0  0  0
    8.7472   11.0644   24.1746 C   0  0  0  0  0  0  0  0  0  0  0  0
  2  1  1  1
  2  3  1  0
  3  4  1  0
  4  5  1  0
  4  6  1  0
  4  7  1  0
  2  8  1  0
  8  9  1  0
  9 10  2  0
  9 11  1  0
 11 12  1  0
 11 13  1  0
 11 14  1  0
 14 15  2  0
 15 16  1  0
 16 17  2  0
 17 18  1  0
 18 19  2  0
 19 14  1  0
M  END
>  <ref_pdb>  (624) 
A3194a

>  <subsites>  (624) 
1 - Active Site

>  <HIPPO Compound ID>  (624) 
10821

>  <energy_score>  (624) 
-7.999166

>  <fragmenstein_mode>  (624) 
expansion

>  <scratch_subdir>  (624) 
/opt/xchem-fragalysis-2/maxwin/BulkDock/SCRATCH/512200/C8041-P151

>  <smiles>  (624) 
C[C@@H](CC(F)(F)F)NC(=O)C(F)(F)c1ccncc1

>  <alias>  (624) 
C8041-P151

>  <ref_mols>  (624) 
A3568a,A3194a

>  <inspiration_score>  (624) 
None

>  <tags>  (624) 
BulkDock Fragalysis export,fragmenstein_placed,openbind_a71ev2a_c1_knitwork_impure,openbind_a71ev2a_c1_scaffolds

>  <fragmenstein_outcome>  (624) 
acceptable

>  <fragmenstein_error>  (624) 


>  <distance_score>  (624) 
0.951935

>  <inchikey>  (624) 
GPNVFMKKUMJBLG-UHFFFAOYSA-N

>  <name>  (624) 
C8041-P151

>  <HIPPO Pose ID>  (624) 
376946

>  <Energy>  (624) 
105.196952

>  <exports>  (624) 
['/opt/xchem-fragalysis-2/maxwin/BulkDock/OUTPUTS/openbind_a71ev2a_c1_knitwork_impure_165VXJF.sdf', '/opt/xchem-fragalysis-2/maxwin/BulkDock/OUTPUTS/openbind_a71ev2a_c1_knitwork_impure_1B07QS4.sdf', '/opt/xchem-fragalysis-2/maxwin/BulkDock/OUTPUTS/openbind_a71ev2a_c1_knitwork_impure_1B07X5R.sdf', '/opt/xchem-fragalysis-2/maxwin/openbind-hippo/a71ev2a/openbind_a71ev2a_c1_scaffold_products.sdf', '/opt/xchem-fragalysis-2/maxwin/openbind-hippo/a71ev2a/cycle_01/bulkdock/openbind_a71ev2a_c1_scaffold_products.sdf', '/opt/xchem-fragalysis-2/maxwin/openbind-hippo/a71ev2a/cycle_01/bulkdock/openbind_a71ev2a_c1_scaffolds.sdf']

>  <fragmenstein_runtime>  (624) 
5.981444

$$$$
C19976-P296
     RDKit          3D

 15 17  0  0  0  0  0  0  0  0999 V2000
    4.9459   13.3473   29.5698 C   0  0  0  0  0  0  0  0  0  0  0  0
    4.5378   13.5410   28.0979 C   0  0  0  0  0  0  0  0  0  0  0  0
    4.6050   15.0504   27.7800 C   0  0  0  0  0  0  0  0  0  0  0  0
    3.0835   13.0769   27.8939 C   0  0  0  0  0  0  0  0  0  0  0  0
    5.4798   12.7749   27.1723 C   0  0  0  0  0  0  0  0  0  0  0  0
    6.2233   13.3421   26.2374 N   0  0  0  0  0  0  0  0  0  0  0  0
    6.9285   12.3844   25.5483 C   0  0  0  0  0  0  0  0  0  0  0  0
    6.7419   11.0981   25.9834 C   0  0  0  0  0  0  0  0  0  0  0  0
    5.6550   11.0522   27.2829 S   0  0  0  0  0  0  0  0  0  0  0  0
    7.4677    9.9188   25.4614 C   0  0  0  0  0  0  0  0  0  0  0  0
    8.5628   10.2283   24.4384 C   0  0  0  0  0  0  0  0  0  0  0  0
    9.0102   11.6994   24.3713 C   0  0  0  0  0  0  0  0  0  0  0  0
    7.8561   12.7148   24.4358 C   0  0  0  0  0  0  0  0  0  0  0  0
    9.5916    9.1025   24.3367 C   0  0  0  0  0  0  0  0  0  0  0  0
    8.8080    9.4286   23.1626 C   0  0  0  0  0  0  0  0  0  0  0  0
  1  2  1  0
  2  3  1  0
  2  4  1  0
  2  5  1  0
  5  6  2  0
  6  7  1  0
  7  8  2  0
  8  9  1  0
  8 10  1  0
 10 11  1  0
 11 12  1  0
 12 13  1  0
 11 14  1  0
 14 15  1  0
  9  5  1  0
 15 11  1  0
 13  7  1  0
M  END
>  <ref_pdb>  (625) 
A4311a

>  <subsites>  (625) 
1 - Active Site

>  <HIPPO Compound ID>  (625) 
9575

>  <energy_score>  (625) 
-46.823001

>  <fragmenstein_mode>  (625) 
expansion

>  <scratch_subdir>  (625) 
/opt/xchem-fragalysis-2/maxwin/BulkDock/SCRATCH/512201/C19976-P296

>  <smiles>  (625) 
CC(C)(C)c1nc2c(s1)CC1(CC2)CC1

>  <alias>  (625) 
C19976-P296

>  <ref_mols>  (625) 
A4311a,A0556a

>  <inspiration_score>  (625) 
None

>  <tags>  (625) 
BulkDock Fragalysis export,fragmenstein_placed,openbind_a71ev2a_c1_knitwork_impure,openbind_a71ev2a_c1_scaffolds

>  <fragmenstein_outcome>  (625) 
acceptable

>  <fragmenstein_error>  (625) 


>  <distance_score>  (625) 
0.874866

>  <inchikey>  (625) 
DDAYMZHBOWJNFK-UHFFFAOYSA-N

>  <name>  (625) 
C19976-P296

>  <HIPPO Pose ID>  (625) 
377914

>  <Energy>  (625) 
59.333891

>  <exports>  (625) 
['/opt/xchem-fragalysis-2/maxwin/BulkDock/OUTPUTS/openbind_a71ev2a_c1_knitwork_impure_165VXJF.sdf', '/opt/xchem-fragalysis-2/maxwin/BulkDock/OUTPUTS/openbind_a71ev2a_c1_knitwork_impure_1B07QS4.sdf', '/opt/xchem-fragalysis-2/maxwin/BulkDock/OUTPUTS/openbind_a71ev2a_c1_knitwork_impure_1B07X5R.sdf', '/opt/xchem-fragalysis-2/maxwin/openbind-hippo/a71ev2a/openbind_a71ev2a_c1_scaffold_products.sdf', '/opt/xchem-fragalysis-2/maxwin/openbind-hippo/a71ev2a/cycle_01/bulkdock/openbind_a71ev2a_c1_scaffold_products.sdf', '/opt/xchem-fragalysis-2/maxwin/openbind-hippo/a71ev2a/cycle_01/bulkdock/openbind_a71ev2a_c1_scaffolds.sdf']

>  <fragmenstein_runtime>  (625) 
12.366841

$$$$
C82692-P296
     RDKit          3D

 11 11  0  0  0  0  0  0  0  0999 V2000
    4.3362   10.0314   28.5060 C   0  0  0  0  0  0  0  0  0  0  0  0
    5.6538   10.7257   28.1839 C   0  0  0  0  0  0  0  0  0  0  0  0
    5.9549   11.7360   29.3001 C   0  0  0  0  0  0  0  0  0  0  0  0
    5.6951   11.4342   26.8108 C   0  0  0  0  0  0  0  0  0  0  0  0
    6.8486   11.0826   25.9077 C   0  0  0  0  0  0  0  0  0  0  0  0
    7.2744    9.8379   25.6662 C   0  0  0  0  0  0  0  0  0  0  0  0
    8.2959    9.5007   24.8246 N   0  0  0  0  0  0  0  0  0  0  0  0
    9.0069   10.3725   24.0778 N   0  0  0  0  0  0  0  0  0  0  0  0
    8.6906   11.6225   24.1969 C   0  0  0  0  0  0  0  0  0  0  0  0
    7.6093   12.1029   25.1338 C   0  0  0  0  0  0  0  0  0  0  0  0
    7.4339   13.7623   25.1664 S   0  0  0  0  0  0  0  0  0  0  0  0
  1  2  1  0
  2  3  1  0
  2  4  1  0
  4  5  1  0
  5  6  2  0
  6  7  1  0
  7  8  1  0
  8  9  2  0
  9 10  1  0
 10 11  2  0
 10  5  1  0
M  END
>  <ref_pdb>  (626) 
A4311a

>  <subsites>  (626) 
1 - Active Site

>  <HIPPO Compound ID>  (626) 
12439

>  <energy_score>  (626) 
-22.765337

>  <fragmenstein_mode>  (626) 
expansion

>  <scratch_subdir>  (626) 
/opt/xchem-fragalysis-2/maxwin/BulkDock/SCRATCH/512201/C82692-P296

>  <smiles>  (626) 
CC(C)Cc1c[nH]ncc1=S

>  <alias>  (626) 
C82692-P296

>  <ref_mols>  (626) 
A4311a,A0556a

>  <inspiration_score>  (626) 
None

>  <tags>  (626) 
BulkDock Fragalysis export,fragmenstein_placed,openbind_a71ev2a_c1_knitwork_impure,openbind_a71ev2a_c1_scaffolds

>  <fragmenstein_outcome>  (626) 
acceptable

>  <fragmenstein_error>  (626) 


>  <distance_score>  (626) 
0.949544

>  <inchikey>  (626) 
FKTAAXVJSFCNDC-UHFFFAOYSA-N

>  <name>  (626) 
C82692-P296

>  <HIPPO Pose ID>  (626) 
377936

>  <Energy>  (626) 
58.738147

>  <exports>  (626) 
['/opt/xchem-fragalysis-2/maxwin/BulkDock/OUTPUTS/openbind_a71ev2a_c1_knitwork_impure_165VXJF.sdf', '/opt/xchem-fragalysis-2/maxwin/BulkDock/OUTPUTS/openbind_a71ev2a_c1_knitwork_impure_1B07QS4.sdf', '/opt/xchem-fragalysis-2/maxwin/BulkDock/OUTPUTS/openbind_a71ev2a_c1_knitwork_impure_1B07X5R.sdf', '/opt/xchem-fragalysis-2/maxwin/openbind-hippo/a71ev2a/openbind_a71ev2a_c1_scaffold_products.sdf', '/opt/xchem-fragalysis-2/maxwin/openbind-hippo/a71ev2a/cycle_01/bulkdock/openbind_a71ev2a_c1_scaffold_products.sdf', '/opt/xchem-fragalysis-2/maxwin/openbind-hippo/a71ev2a/cycle_01/bulkdock/openbind_a71ev2a_c1_scaffolds.sdf']

>  <fragmenstein_runtime>  (626) 
21.569684

$$$$
C1800-P296
     RDKit          3D

 16 18  0  0  0  0  0  0  0  0999 V2000
    9.3302   12.7477   23.0782 C   0  0  0  0  0  0  0  0  0  0  0  0
    9.0249   11.5639   23.6641 N   0  0  0  0  0  0  0  0  0  0  0  0
    8.0180   11.5498   24.5633 C   0  0  0  0  0  0  0  0  0  0  0  0
    7.2870   12.6870   24.8841 C   0  0  0  0  0  0  0  0  0  0  0  0
    7.6211   13.8828   24.2505 C   0  0  0  0  0  0  0  0  0  0  0  0
    8.6819   13.9451   23.3465 C   0  0  0  0  0  0  0  0  0  0  0  0
    9.1086   15.3000   22.8171 C   0  0  0  0  0  0  0  0  0  0  0  0
   10.4960   15.6907   23.3433 C   0  0  0  0  0  0  0  0  0  0  0  0
   11.6351   15.2302   22.4478 C   0  0  0  0  0  0  0  0  0  0  0  0
   11.4310   15.6823   21.0837 N   0  0  0  0  0  0  0  0  0  0  0  0
   10.2182   15.1126   20.5097 C   0  0  0  0  0  0  0  0  0  0  0  0
    8.9754   15.4994   21.3022 C   0  0  0  0  0  0  0  0  0  0  0  0
    6.1430   12.6564   25.8522 C   0  0  0  0  0  0  0  0  0  0  0  0
    6.2810   11.5400   26.8730 C   0  0  0  0  0  0  0  0  0  0  0  0
    6.5979   10.2145   26.2068 C   0  0  0  0  0  0  0  0  0  0  0  0
    7.8122   10.2613   25.2958 C   0  0  0  0  0  0  0  0  0  0  0  0
  1  2  2  0
  2  3  1  0
  3  4  2  0
  4  5  1  0
  5  6  2  0
  6  7  1  0
  7  8  1  0
  8  9  1  0
  9 10  1  0
 10 11  1  0
 11 12  1  0
  4 13  1  0
 13 14  1  0
 14 15  1  0
 15 16  1  0
  6  1  1  0
 12  7  1  0
 16  3  1  0
M  END
>  <ref_pdb>  (627) 
A4311a

>  <subsites>  (627) 
1 - Active Site

>  <HIPPO Compound ID>  (627) 
6343

>  <energy_score>  (627) 
-21.110994

>  <fragmenstein_mode>  (627) 
expansion

>  <scratch_subdir>  (627) 
/opt/xchem-fragalysis-2/maxwin/BulkDock/SCRATCH/512201/C1800-P296

>  <smiles>  (627) 
c1nc2c(cc1C1CCNCC1)CCCC2

>  <alias>  (627) 
C1800-P296

>  <ref_mols>  (627) 
A4311a,A0556a

>  <inspiration_score>  (627) 
None

>  <tags>  (627) 
BulkDock Fragalysis export,fragmenstein_placed,openbind_a71ev2a_c1_knitwork_impure,openbind_a71ev2a_c1_scaffolds

>  <fragmenstein_outcome>  (627) 
acceptable

>  <fragmenstein_error>  (627) 


>  <distance_score>  (627) 
0.982107

>  <inchikey>  (627) 
MTFCVKLEKLKXNT-UHFFFAOYSA-N

>  <name>  (627) 
C1800-P296

>  <HIPPO Pose ID>  (627) 
377994

>  <Energy>  (627) 
26.374062

>  <exports>  (627) 
['/opt/xchem-fragalysis-2/maxwin/BulkDock/OUTPUTS/openbind_a71ev2a_c1_knitwork_impure_165VXJF.sdf', '/opt/xchem-fragalysis-2/maxwin/BulkDock/OUTPUTS/openbind_a71ev2a_c1_knitwork_impure_1B07QS4.sdf', '/opt/xchem-fragalysis-2/maxwin/BulkDock/OUTPUTS/openbind_a71ev2a_c1_knitwork_impure_1B07X5R.sdf', '/opt/xchem-fragalysis-2/maxwin/openbind-hippo/a71ev2a/openbind_a71ev2a_c1_scaffold_products.sdf', '/opt/xchem-fragalysis-2/maxwin/openbind-hippo/a71ev2a/cycle_01/bulkdock/openbind_a71ev2a_c1_scaffold_products.sdf', '/opt/xchem-fragalysis-2/maxwin/openbind-hippo/a71ev2a/cycle_01/bulkdock/openbind_a71ev2a_c1_scaffolds.sdf']

>  <fragmenstein_runtime>  (627) 
49.12904

$$$$
C6268-P306
     RDKit          3D

 12 13  0  0  0  0  0  0  0  0999 V2000
   10.3217   15.8236   20.8096 C   0  0  0  0  0  0  0  0  0  0  0  0
   11.4196   15.2251   21.4070 C   0  0  0  0  0  0  0  0  0  0  0  0
   11.2337   14.4654   22.5582 C   0  0  0  0  0  0  0  0  0  0  0  0
    9.9392   14.2744   23.0513 C   0  0  0  0  0  0  0  0  0  0  0  0
    9.6330   13.3549   24.2297 C   0  0  1  0  0  0  0  0  0  0  0  0
    8.1170   13.0038   24.2850 C   0  0  0  0  0  0  0  0  0  0  0  0
    7.6751   11.9257   25.1747 N   0  0  0  0  0  0  0  0  0  0  0  0
    8.3402   10.6491   24.9451 C   0  0  0  0  0  0  0  0  0  0  0  0
    9.4426   10.5890   23.8933 C   0  0  0  0  0  0  0  0  0  0  0  0
   10.6970   11.8520   24.2058 S   0  0  0  0  0  0  0  0  0  0  0  0
    8.8767   14.9087   22.5014 N   0  0  0  0  0  0  0  0  0  0  0  0
    9.0930   15.6805   21.4176 C   0  0  0  0  0  0  0  0  0  0  0  0
  1  2  2  0
  2  3  1  0
  3  4  2  0
  5  4  1  6
  5  6  1  0
  6  7  1  0
  7  8  1  0
  8  9  1  0
  9 10  1  0
  4 11  1  0
 11 12  2  0
 12  1  1  0
 10  5  1  0
M  END
>  <ref_pdb>  (628) 
A4322a

>  <subsites>  (628) 
1 - Active Site

>  <HIPPO Compound ID>  (628) 
9132

>  <energy_score>  (628) 
-20.168528

>  <fragmenstein_mode>  (628) 
expansion

>  <scratch_subdir>  (628) 
/opt/xchem-fragalysis-2/maxwin/BulkDock/SCRATCH/512201/C6268-P306

>  <smiles>  (628) 
c1ccc([C@H]2CNCCS2)nc1

>  <alias>  (628) 
C6268-P306

>  <ref_mols>  (628) 
A4322a,A2629a

>  <inspiration_score>  (628) 
None

>  <tags>  (628) 
BulkDock Fragalysis export,fragmenstein_placed,openbind_a71ev2a_c1_knitwork_impure,openbind_a71ev2a_c1_scaffolds

>  <fragmenstein_outcome>  (628) 
acceptable

>  <fragmenstein_error>  (628) 


>  <distance_score>  (628) 
0.986412

>  <inchikey>  (628) 
IXXWILBFBCPULP-UHFFFAOYSA-N

>  <name>  (628) 
C6268-P306

>  <HIPPO Pose ID>  (628) 
378333

>  <Energy>  (628) 
95.78849

>  <exports>  (628) 
['/opt/xchem-fragalysis-2/maxwin/BulkDock/OUTPUTS/openbind_a71ev2a_c1_knitwork_impure_165VXJF.sdf', '/opt/xchem-fragalysis-2/maxwin/BulkDock/OUTPUTS/openbind_a71ev2a_c1_knitwork_impure_1B07QS4.sdf', '/opt/xchem-fragalysis-2/maxwin/BulkDock/OUTPUTS/openbind_a71ev2a_c1_knitwork_impure_1B07X5R.sdf', '/opt/xchem-fragalysis-2/maxwin/openbind-hippo/a71ev2a/openbind_a71ev2a_c1_scaffold_products.sdf', '/opt/xchem-fragalysis-2/maxwin/openbind-hippo/a71ev2a/cycle_01/bulkdock/openbind_a71ev2a_c1_scaffold_products.sdf', '/opt/xchem-fragalysis-2/maxwin/openbind-hippo/a71ev2a/cycle_01/bulkdock/openbind_a71ev2a_c1_scaffolds.sdf']

>  <fragmenstein_runtime>  (628) 
6.112712

$$$$
C6269-P306
     RDKit          3D

 12 13  0  0  0  0  0  0  0  0999 V2000
   10.3633   15.7920   21.0089 C   0  0  0  0  0  0  0  0  0  0  0  0
   11.4782   15.3391   21.6994 C   0  0  0  0  0  0  0  0  0  0  0  0
   11.2966   14.5330   22.8184 C   0  0  0  0  0  0  0  0  0  0  0  0
    9.9982   14.1582   23.1831 C   0  0  0  0  0  0  0  0  0  0  0  0
    9.7759   13.0893   24.2651 C   0  0  1  0  0  0  0  0  0  0  0  0
    8.2554   12.9331   24.5831 C   0  0  0  0  0  0  0  0  0  0  0  0
    7.7544   11.4150   25.4662 S   0  0  0  0  0  0  0  0  0  0  0  0
    8.7432   10.2102   24.5466 C   0  0  0  0  0  0  0  0  0  0  0  0
    9.6011   10.7924   23.4446 C   0  0  0  0  0  0  0  0  0  0  0  0
   10.5142   11.8380   23.9072 N   0  0  0  0  0  0  0  0  0  0  0  0
    8.9097   14.6174   22.5261 N   0  0  0  0  0  0  0  0  0  0  0  0
    9.1151   15.4455   21.4833 C   0  0  0  0  0  0  0  0  0  0  0  0
  1  2  2  0
  2  3  1  0
  3  4  2  0
  5  4  1  6
  5  6  1  0
  6  7  1  0
  7  8  1  0
  8  9  1  0
  9 10  1  0
  4 11  1  0
 11 12  2  0
 12  1  1  0
 10  5  1  0
M  END
>  <ref_pdb>  (629) 
A4322a

>  <subsites>  (629) 
1 - Active Site

>  <HIPPO Compound ID>  (629) 
8889

>  <energy_score>  (629) 
-18.325802

>  <fragmenstein_mode>  (629) 
expansion

>  <scratch_subdir>  (629) 
/opt/xchem-fragalysis-2/maxwin/BulkDock/SCRATCH/512201/C6269-P306

>  <smiles>  (629) 
c1ccc([C@H]2CSCCN2)nc1

>  <alias>  (629) 
C6269-P306

>  <ref_mols>  (629) 
A4322a,A2629a

>  <inspiration_score>  (629) 
None

>  <tags>  (629) 
BulkDock Fragalysis export,fragmenstein_placed,openbind_a71ev2a_c1_knitwork_impure,openbind_a71ev2a_c1_scaffolds

>  <fragmenstein_outcome>  (629) 
acceptable

>  <fragmenstein_error>  (629) 


>  <distance_score>  (629) 
0.890667

>  <inchikey>  (629) 
UKIYNEQFJFUCIO-UHFFFAOYSA-N

>  <name>  (629) 
C6269-P306

>  <HIPPO Pose ID>  (629) 
378334

>  <Energy>  (629) 
92.078861

>  <exports>  (629) 
['/opt/xchem-fragalysis-2/maxwin/BulkDock/OUTPUTS/openbind_a71ev2a_c1_knitwork_impure_165VXJF.sdf', '/opt/xchem-fragalysis-2/maxwin/BulkDock/OUTPUTS/openbind_a71ev2a_c1_knitwork_impure_1B07QS4.sdf', '/opt/xchem-fragalysis-2/maxwin/BulkDock/OUTPUTS/openbind_a71ev2a_c1_knitwork_impure_1B07X5R.sdf', '/opt/xchem-fragalysis-2/maxwin/openbind-hippo/a71ev2a/openbind_a71ev2a_c1_scaffold_products.sdf', '/opt/xchem-fragalysis-2/maxwin/openbind-hippo/a71ev2a/cycle_01/bulkdock/openbind_a71ev2a_c1_scaffold_products.sdf', '/opt/xchem-fragalysis-2/maxwin/openbind-hippo/a71ev2a/cycle_01/bulkdock/openbind_a71ev2a_c1_scaffolds.sdf']

>  <fragmenstein_runtime>  (629) 
6.495883

$$$$
C7182-P153
     RDKit          3D

 22 23  0  0  0  0  0  0  0  0999 V2000
    9.3588    9.8945   23.5533 C   0  0  0  0  0  0  0  0  0  0  0  0
    8.4393   10.4760   24.5595 C   0  0  0  0  0  0  0  0  0  0  0  0
    7.5844    9.8250   25.4156 C   0  0  0  0  0  0  0  0  0  0  0  0
    6.9618   10.8189   26.1811 C   0  0  0  0  0  0  0  0  0  0  0  0
    5.9602   10.5529   27.0645 N   0  0  0  0  0  0  0  0  0  0  0  0
    5.3435   11.4352   28.1865 C   0  0  0  0  0  0  0  0  0  0  0  0
    5.6521   12.4921   28.5725 O   0  0  0  0  0  0  0  0  0  0  0  0
    4.1097   10.6597   28.6602 C   0  0  0  0  0  0  0  0  0  0  0  0
    3.3412   11.1677   29.8880 C   0  0  1  0  0  0  0  0  0  0  0  0
    3.2067   12.6868   29.9800 C   0  0  0  0  0  0  0  0  0  0  0  0
    1.9395   10.5622   29.8748 C   0  0  0  0  0  0  0  0  0  0  0  0
    1.2871   10.8076   31.0296 F   0  0  0  0  0  0  0  0  0  0  0  0
    1.9829    9.2212   29.7108 F   0  0  0  0  0  0  0  0  0  0  0  0
    1.2005   11.0594   28.8584 F   0  0  0  0  0  0  0  0  0  0  0  0
    7.4562   12.0207   25.8965 N   0  0  0  0  0  0  0  0  0  0  0  0
    8.2557   11.8131   24.8230 N   0  0  0  0  0  0  0  0  0  0  0  0
    8.8204   12.9397   24.0837 C   0  0  0  0  0  0  0  0  0  0  0  0
   10.1988   13.3321   24.6275 C   0  0  0  0  0  0  0  0  0  0  0  0
   10.8286   14.4397   23.7875 C   0  0  0  0  0  0  0  0  0  0  0  0
    9.9054   15.6472   23.6746 C   0  0  0  0  0  0  0  0  0  0  0  0
    8.5218   15.2684   23.1521 C   0  0  0  0  0  0  0  0  0  0  0  0
    7.8879   14.1583   23.9900 C   0  0  0  0  0  0  0  0  0  0  0  0
  1  2  1  0
  2  3  2  0
  3  4  1  0
  4  5  1  0
  5  6  1  0
  6  7  2  0
  6  8  1  0
  8  9  1  0
  9 10  1  6
  9 11  1  0
 11 12  1  0
 11 13  1  0
 11 14  1  0
  4 15  2  0
 15 16  1  0
 16 17  1  0
 17 18  1  0
 18 19  1  0
 19 20  1  0
 20 21  1  0
 21 22  1  0
 16  2  1  0
 22 17  1  0
M  END
>  <ref_pdb>  (630) 
A3207a

>  <subsites>  (630) 
1 - Active Site

>  <HIPPO Compound ID>  (630) 
875

>  <energy_score>  (630) 
-9.039998

>  <fragmenstein_mode>  (630) 
expansion

>  <scratch_subdir>  (630) 
/opt/xchem-fragalysis-2/maxwin/BulkDock/SCRATCH/512201/C7182-P153

>  <smiles>  (630) 
Cc1cc(NC(=O)C[C@@H](C)C(F)(F)F)nn1C1CCCCC1

>  <alias>  (630) 
C7182-P153

>  <ref_mols>  (630) 
A1445a,A3207a

>  <inspiration_score>  (630) 
None

>  <tags>  (630) 
BulkDock Fragalysis export,fragmenstein_placed,openbind_a71ev2a_c1_knitwork_impure,openbind_a71ev2a_c1_scaffolds

>  <fragmenstein_outcome>  (630) 
acceptable

>  <fragmenstein_error>  (630) 


>  <distance_score>  (630) 
0.968147

>  <inchikey>  (630) 
PLRNRTQFDDEAPK-UHFFFAOYSA-N

>  <name>  (630) 
C7182-P153

>  <HIPPO Pose ID>  (630) 
378542

>  <Energy>  (630) 
-12.400804

>  <exports>  (630) 
['/opt/xchem-fragalysis-2/maxwin/BulkDock/OUTPUTS/openbind_a71ev2a_c1_knitwork_impure_165VXJF.sdf', '/opt/xchem-fragalysis-2/maxwin/BulkDock/OUTPUTS/openbind_a71ev2a_c1_knitwork_impure_1B07QS4.sdf', '/opt/xchem-fragalysis-2/maxwin/BulkDock/OUTPUTS/openbind_a71ev2a_c1_knitwork_impure_1B07X5R.sdf', '/opt/xchem-fragalysis-2/maxwin/openbind-hippo/a71ev2a/openbind_a71ev2a_c1_scaffold_products.sdf', '/opt/xchem-fragalysis-2/maxwin/openbind-hippo/a71ev2a/cycle_01/bulkdock/openbind_a71ev2a_c1_scaffold_products.sdf', '/opt/xchem-fragalysis-2/maxwin/openbind-hippo/a71ev2a/cycle_01/bulkdock/openbind_a71ev2a_c1_scaffolds.sdf']

>  <fragmenstein_runtime>  (630) 
14.200127

$$$$
C7646-P373
     RDKit          3D

 13 14  0  0  0  0  0  0  0  0999 V2000
    5.7918   15.8427   22.0637 N   0  0  0  0  0  0  0  0  0  0  0  0
    7.2163   15.0547   22.4590 S   0  0  0  0  0  0  0  0  0  0  0  0
    8.2780   15.8572   21.9059 O   0  0  0  0  0  0  0  0  0  0  0  0
    7.0224   13.6762   22.0627 O   0  0  0  0  0  0  0  0  0  0  0  0
    7.1958   15.2425   24.2391 C   0  0  0  0  0  0  0  0  0  0  0  0
    8.5394   14.9535   24.9076 C   0  0  0  0  0  0  0  0  0  0  0  0
    9.3480   13.7549   24.3961 C   0  0  0  0  0  0  0  0  0  0  0  0
    8.9267   12.4281   24.8008 N   0  0  0  0  0  0  0  0  0  0  0  0
    9.3861   11.3980   23.8476 C   0  0  0  0  0  0  0  0  0  0  0  0
    8.4776   10.2455   24.1111 C   0  0  1  0  0  0  0  0  0  0  0  0
    8.1340    9.7635   25.4761 C   0  0  0  0  0  0  0  0  0  0  0  0
    7.2982   10.7827   24.8443 C   0  0  1  0  0  0  0  0  0  0  0  0
    7.5013   12.2316   25.0495 C   0  0  0  0  0  0  0  0  0  0  0  0
  1  2  1  0
  2  3  2  0
  2  4  2  0
  2  5  1  0
  5  6  1  0
  6  7  1  0
  7  8  1  0
  8  9  1  0
 10  9  1  1
 10 11  1  0
 12 11  1  1
 12 13  1  0
 13  8  1  0
 12 10  1  0
M  END
>  <ref_pdb>  (631) 
A4461a

>  <subsites>  (631) 
1 - Active Site

>  <HIPPO Compound ID>  (631) 
12144

>  <energy_score>  (631) 
-75.095235

>  <fragmenstein_mode>  (631) 
expansion

>  <scratch_subdir>  (631) 
/opt/xchem-fragalysis-2/maxwin/BulkDock/SCRATCH/512201/C7646-P373

>  <smiles>  (631) 
NS(=O)(=O)CCCN1C[C@H]2C[C@H]2C1

>  <alias>  (631) 
C7646-P373

>  <ref_mols>  (631) 
A4461a,A0719a

>  <inspiration_score>  (631) 
None

>  <tags>  (631) 
BulkDock Fragalysis export,fragmenstein_placed,openbind_a71ev2a_c1_knitwork_impure,openbind_a71ev2a_c1_scaffolds

>  <fragmenstein_outcome>  (631) 
acceptable

>  <fragmenstein_error>  (631) 


>  <distance_score>  (631) 
0.95526

>  <inchikey>  (631) 
WRGUXZFLVPHPPA-UHFFFAOYSA-N

>  <name>  (631) 
C7646-P373

>  <HIPPO Pose ID>  (631) 
378994

>  <Energy>  (631) 
-53.90183

>  <exports>  (631) 
['/opt/xchem-fragalysis-2/maxwin/BulkDock/OUTPUTS/openbind_a71ev2a_c1_knitwork_impure_165VXJF.sdf', '/opt/xchem-fragalysis-2/maxwin/BulkDock/OUTPUTS/openbind_a71ev2a_c1_knitwork_impure_1B07QS4.sdf', '/opt/xchem-fragalysis-2/maxwin/BulkDock/OUTPUTS/openbind_a71ev2a_c1_knitwork_impure_1B07X5R.sdf', '/opt/xchem-fragalysis-2/maxwin/openbind-hippo/a71ev2a/openbind_a71ev2a_c1_scaffold_products.sdf', '/opt/xchem-fragalysis-2/maxwin/openbind-hippo/a71ev2a/cycle_01/bulkdock/openbind_a71ev2a_c1_scaffold_products.sdf', '/opt/xchem-fragalysis-2/maxwin/openbind-hippo/a71ev2a/cycle_01/bulkdock/openbind_a71ev2a_c1_scaffolds.sdf']

>  <fragmenstein_runtime>  (631) 
3.736788

$$$$
C7653-P373
     RDKit          3D

 13 13  0  0  0  0  0  0  0  0999 V2000
   12.0713   14.8323   23.2835 C   0  0  0  0  0  0  0  0  0  0  0  0
   10.7481   15.3001   23.8665 C   0  0  0  0  0  0  0  0  0  0  0  0
    9.5813   14.9489   22.9606 C   0  0  0  0  0  0  0  0  0  0  0  0
    8.9137   13.3142   23.2439 S   0  0  0  0  0  0  0  0  0  0  0  0
    7.8430   13.1089   22.2903 O   0  0  0  0  0  0  0  0  0  0  0  0
    9.9670   12.3513   23.4630 O   0  0  0  0  0  0  0  0  0  0  0  0
    8.0766   13.5206   24.6829 N   0  0  0  0  0  0  0  0  0  0  0  0
    7.8829   12.3260   25.5566 C   0  0  1  0  0  0  0  0  0  0  0  0
    6.7828   12.7014   26.5741 C   0  0  0  0  0  0  0  0  0  0  0  0
    6.0511   11.5628   27.2063 C   0  0  0  0  0  0  0  0  0  0  0  0
    6.1908   10.2978   26.8014 C   0  0  0  0  0  0  0  0  0  0  0  0
    7.0936    9.8994   25.6852 C   0  0  0  0  0  0  0  0  0  0  0  0
    7.6080   11.0327   24.8159 C   0  0  0  0  0  0  0  0  0  0  0  0
  1  2  1  0
  2  3  1  0
  3  4  1  0
  4  5  2  0
  4  6  2  0
  4  7  1  0
  8  7  1  6
  8  9  1  0
  9 10  1  0
 10 11  2  0
 11 12  1  0
 12 13  1  0
 13  8  1  0
M  END
>  <ref_pdb>  (632) 
A4461a

>  <subsites>  (632) 
1 - Active Site

>  <HIPPO Compound ID>  (632) 
5288

>  <energy_score>  (632) 
-32.198193

>  <fragmenstein_mode>  (632) 
expansion

>  <scratch_subdir>  (632) 
/opt/xchem-fragalysis-2/maxwin/BulkDock/SCRATCH/512201/C7653-P373

>  <smiles>  (632) 
CCCS(=O)(=O)N[C@H]1CC=CCC1

>  <alias>  (632) 
C7653-P373

>  <ref_mols>  (632) 
A4461a,A0719a

>  <inspiration_score>  (632) 
None

>  <tags>  (632) 
BulkDock Fragalysis export,fragmenstein_placed,openbind_a71ev2a_c1_knitwork_impure,openbind_a71ev2a_c1_scaffolds

>  <fragmenstein_outcome>  (632) 
acceptable

>  <fragmenstein_error>  (632) 


>  <distance_score>  (632) 
0.85927

>  <inchikey>  (632) 
DCWKGBWLMWJEGU-UHFFFAOYSA-N

>  <name>  (632) 
C7653-P373

>  <HIPPO Pose ID>  (632) 
378998

>  <Energy>  (632) 
-46.624434

>  <exports>  (632) 
['/opt/xchem-fragalysis-2/maxwin/BulkDock/OUTPUTS/openbind_a71ev2a_c1_knitwork_impure_165VXJF.sdf', '/opt/xchem-fragalysis-2/maxwin/BulkDock/OUTPUTS/openbind_a71ev2a_c1_knitwork_impure_1B07QS4.sdf', '/opt/xchem-fragalysis-2/maxwin/BulkDock/OUTPUTS/openbind_a71ev2a_c1_knitwork_impure_1B07X5R.sdf', '/opt/xchem-fragalysis-2/maxwin/openbind-hippo/a71ev2a/openbind_a71ev2a_c1_scaffold_products.sdf', '/opt/xchem-fragalysis-2/maxwin/openbind-hippo/a71ev2a/cycle_01/bulkdock/openbind_a71ev2a_c1_scaffold_products.sdf', '/opt/xchem-fragalysis-2/maxwin/openbind-hippo/a71ev2a/cycle_01/bulkdock/openbind_a71ev2a_c1_scaffolds.sdf']

>  <fragmenstein_runtime>  (632) 
2.607155

$$$$
C7658-P373
     RDKit          3D

 12 12  0  0  0  0  0  0  0  0999 V2000
    6.2765   10.8714   26.6096 C   0  0  0  0  0  0  0  0  0  0  0  0
    6.8682   12.2312   26.2965 C   0  0  0  0  0  0  0  0  0  0  0  0
    7.7599   12.2127   25.0586 C   0  0  0  0  0  0  0  0  0  0  0  0
    8.6912   13.7339   24.9189 S   0  0  0  0  0  0  0  0  0  0  0  0
    7.8484   14.8212   25.3657 O   0  0  0  0  0  0  0  0  0  0  0  0
    9.9996   13.4963   25.4908 O   0  0  0  0  0  0  0  0  0  0  0  0
    8.8090   13.8777   23.2019 N   0  0  0  0  0  0  0  0  0  0  0  0
    9.7390   14.9120   22.8984 N   0  0  0  0  0  0  0  0  0  0  0  0
    9.5937   15.3901   21.5160 C   0  0  0  0  0  0  0  0  0  0  0  0
   10.9029   16.1096   21.2702 C   0  0  0  0  0  0  0  0  0  0  0  0
   11.9125   15.1928   21.9211 C   0  0  0  0  0  0  0  0  0  0  0  0
   11.1477   14.4912   23.0329 C   0  0  0  0  0  0  0  0  0  0  0  0
  1  2  1  0
  2  3  1  0
  3  4  1  0
  4  5  2  0
  4  6  2  0
  4  7  1  0
  7  8  1  0
  8  9  1  0
  9 10  1  0
 10 11  1  0
 11 12  1  0
 12  8  1  0
M  END
>  <ref_pdb>  (633) 
A4461a

>  <subsites>  (633) 
1 - Active Site

>  <HIPPO Compound ID>  (633) 
4645

>  <energy_score>  (633) 
-23.010176

>  <fragmenstein_mode>  (633) 
expansion

>  <scratch_subdir>  (633) 
/opt/xchem-fragalysis-2/maxwin/BulkDock/SCRATCH/512201/C7658-P373

>  <smiles>  (633) 
CCCS(=O)(=O)NN1CCCC1

>  <alias>  (633) 
C7658-P373

>  <ref_mols>  (633) 
A4461a,A0719a

>  <inspiration_score>  (633) 
None

>  <tags>  (633) 
BulkDock Fragalysis export,fragmenstein_placed,openbind_a71ev2a_c1_knitwork_impure,openbind_a71ev2a_c1_scaffolds

>  <fragmenstein_outcome>  (633) 
acceptable

>  <fragmenstein_error>  (633) 


>  <distance_score>  (633) 
0.989989

>  <inchikey>  (633) 
JHPLEUYNZYOKAC-UHFFFAOYSA-N

>  <name>  (633) 
C7658-P373

>  <HIPPO Pose ID>  (633) 
379001

>  <Energy>  (633) 
27.107056

>  <exports>  (633) 
['/opt/xchem-fragalysis-2/maxwin/BulkDock/OUTPUTS/openbind_a71ev2a_c1_knitwork_impure_165VXJF.sdf', '/opt/xchem-fragalysis-2/maxwin/BulkDock/OUTPUTS/openbind_a71ev2a_c1_knitwork_impure_1B07QS4.sdf', '/opt/xchem-fragalysis-2/maxwin/BulkDock/OUTPUTS/openbind_a71ev2a_c1_knitwork_impure_1B07X5R.sdf', '/opt/xchem-fragalysis-2/maxwin/openbind-hippo/a71ev2a/openbind_a71ev2a_c1_scaffold_products.sdf', '/opt/xchem-fragalysis-2/maxwin/openbind-hippo/a71ev2a/cycle_01/bulkdock/openbind_a71ev2a_c1_scaffold_products.sdf', '/opt/xchem-fragalysis-2/maxwin/openbind-hippo/a71ev2a/cycle_01/bulkdock/openbind_a71ev2a_c1_scaffolds.sdf']

>  <fragmenstein_runtime>  (633) 
2.230908

$$$$
C7672-P373
     RDKit          3D

 13 13  0  0  0  0  0  0  0  0999 V2000
   12.0377   14.8358   23.2781 C   0  0  0  0  0  0  0  0  0  0  0  0
   10.7042   15.3490   23.7967 C   0  0  0  0  0  0  0  0  0  0  0  0
    9.5581   14.9656   22.8759 C   0  0  0  0  0  0  0  0  0  0  0  0
    8.8565   13.3592   23.2317 S   0  0  0  0  0  0  0  0  0  0  0  0
    7.8215   13.1021   22.2531 O   0  0  0  0  0  0  0  0  0  0  0  0
    9.8913   12.4055   23.5556 O   0  0  0  0  0  0  0  0  0  0  0  0
    7.9532   13.6695   24.6103 N   0  0  0  0  0  0  0  0  0  0  0  0
    7.6591   12.5597   25.5577 C   0  0  0  0  0  0  0  0  0  0  0  0
    6.4251   12.9890   26.3500 C   0  0  0  0  0  0  0  0  0  0  0  0
    6.0540   12.0457   27.4703 C   0  0  0  0  0  0  0  0  0  0  0  0
    5.6116   10.4148   26.8563 S   0  0  0  0  0  0  0  0  0  0  0  0
    7.0456   10.0655   25.8187 C   0  0  0  0  0  0  0  0  0  0  0  0
    7.5667   11.1779   24.9363 C   0  0  0  0  0  0  0  0  0  0  0  0
  1  2  1  0
  2  3  1  0
  3  4  1  0
  4  5  2  0
  4  6  2  0
  4  7  1  0
  7  8  1  0
  8  9  1  0
  9 10  1  0
 10 11  1  0
 11 12  1  0
 12 13  1  0
 13  8  1  0
M  END
>  <ref_pdb>  (634) 
A4461a

>  <subsites>  (634) 
1 - Active Site

>  <HIPPO Compound ID>  (634) 
3782

>  <energy_score>  (634) 
-37.346659

>  <fragmenstein_mode>  (634) 
expansion

>  <scratch_subdir>  (634) 
/opt/xchem-fragalysis-2/maxwin/BulkDock/SCRATCH/512201/C7672-P373

>  <smiles>  (634) 
CCCS(=O)(=O)NC1CCSCC1

>  <alias>  (634) 
C7672-P373

>  <ref_mols>  (634) 
A4461a,A0719a

>  <inspiration_score>  (634) 
None

>  <tags>  (634) 
BulkDock Fragalysis export,fragmenstein_placed,openbind_a71ev2a_c1_knitwork_impure,openbind_a71ev2a_c1_scaffolds

>  <fragmenstein_outcome>  (634) 
acceptable

>  <fragmenstein_error>  (634) 


>  <distance_score>  (634) 
0.934883

>  <inchikey>  (634) 
QBKDTAGNELZKNO-UHFFFAOYSA-N

>  <name>  (634) 
C7672-P373

>  <HIPPO Pose ID>  (634) 
379007

>  <Energy>  (634) 
-60.536205

>  <exports>  (634) 
['/opt/xchem-fragalysis-2/maxwin/BulkDock/OUTPUTS/openbind_a71ev2a_c1_knitwork_impure_165VXJF.sdf', '/opt/xchem-fragalysis-2/maxwin/BulkDock/OUTPUTS/openbind_a71ev2a_c1_knitwork_impure_1B07QS4.sdf', '/opt/xchem-fragalysis-2/maxwin/BulkDock/OUTPUTS/openbind_a71ev2a_c1_knitwork_impure_1B07X5R.sdf', '/opt/xchem-fragalysis-2/maxwin/openbind-hippo/a71ev2a/openbind_a71ev2a_c1_scaffold_products.sdf', '/opt/xchem-fragalysis-2/maxwin/openbind-hippo/a71ev2a/cycle_01/bulkdock/openbind_a71ev2a_c1_scaffold_products.sdf', '/opt/xchem-fragalysis-2/maxwin/openbind-hippo/a71ev2a/cycle_01/bulkdock/openbind_a71ev2a_c1_scaffolds.sdf']

>  <fragmenstein_runtime>  (634) 
1.935768

$$$$
C7674-P373
     RDKit          3D

 13 14  0  0  0  0  0  0  0  0999 V2000
    5.5370   15.3699   21.9155 N   0  0  0  0  0  0  0  0  0  0  0  0
    7.0124   14.7253   22.3914 S   0  0  0  0  0  0  0  0  0  0  0  0
    8.0089   15.5704   21.7790 O   0  0  0  0  0  0  0  0  0  0  0  0
    6.9247   13.3174   22.0837 O   0  0  0  0  0  0  0  0  0  0  0  0
    6.9353   15.0514   24.1457 C   0  0  0  0  0  0  0  0  0  0  0  0
    8.3123   15.0226   24.7899 C   0  0  0  0  0  0  0  0  0  0  0  0
    8.5978   13.7319   25.5341 C   0  0  0  0  0  0  0  0  0  0  0  0
    8.4548   12.5437   24.7230 N   0  0  0  0  0  0  0  0  0  0  0  0
    9.5907   12.3044   23.8143 C   0  0  0  0  0  0  0  0  0  0  0  0
    9.4967   10.8079   23.4964 C   0  0  0  0  0  0  0  0  0  0  0  0
    8.8480   10.1743   24.6718 C   0  0  2  0  0  0  0  0  0  0  0  0
    7.3967   10.2538   25.0188 C   0  0  0  0  0  0  0  0  0  0  0  0
    8.3088   11.3035   25.4897 C   0  0  2  0  0  0  0  0  0  0  0  0
  1  2  1  0
  2  3  2  0
  2  4  2  0
  2  5  1  0
  5  6  1  0
  6  7  1  0
  7  8  1  0
  8  9  1  0
  9 10  1  0
 11 10  1  6
 11 12  1  0
 13 12  1  6
 13  8  1  0
 13 11  1  0
M  END
>  <ref_pdb>  (635) 
A4461a

>  <subsites>  (635) 
1 - Active Site

>  <HIPPO Compound ID>  (635) 
23517

>  <energy_score>  (635) 
-79.198687

>  <fragmenstein_mode>  (635) 
expansion

>  <scratch_subdir>  (635) 
/opt/xchem-fragalysis-2/maxwin/BulkDock/SCRATCH/512201/C7674-P373

>  <smiles>  (635) 
NS(=O)(=O)CCCN1CC[C@@H]2C[C@@H]21

>  <alias>  (635) 
C7674-P373

>  <ref_mols>  (635) 
A4461a,A0719a

>  <inspiration_score>  (635) 
None

>  <tags>  (635) 
BulkDock Fragalysis export,fragmenstein_placed,openbind_a71ev2a_c1_knitwork_impure,openbind_a71ev2a_c1_scaffolds

>  <fragmenstein_outcome>  (635) 
acceptable

>  <fragmenstein_error>  (635) 


>  <distance_score>  (635) 
0.98012

>  <inchikey>  (635) 
KKPJMJAAGWYOGV-UHFFFAOYSA-N

>  <name>  (635) 
C7674-P373

>  <HIPPO Pose ID>  (635) 
379008

>  <Energy>  (635) 
-70.79377

>  <exports>  (635) 
['/opt/xchem-fragalysis-2/maxwin/BulkDock/OUTPUTS/openbind_a71ev2a_c1_knitwork_impure_165VXJF.sdf', '/opt/xchem-fragalysis-2/maxwin/BulkDock/OUTPUTS/openbind_a71ev2a_c1_knitwork_impure_1B07QS4.sdf', '/opt/xchem-fragalysis-2/maxwin/BulkDock/OUTPUTS/openbind_a71ev2a_c1_knitwork_impure_1B07X5R.sdf', '/opt/xchem-fragalysis-2/maxwin/openbind-hippo/a71ev2a/openbind_a71ev2a_c1_scaffold_products.sdf', '/opt/xchem-fragalysis-2/maxwin/openbind-hippo/a71ev2a/cycle_01/bulkdock/openbind_a71ev2a_c1_scaffold_products.sdf', '/opt/xchem-fragalysis-2/maxwin/openbind-hippo/a71ev2a/cycle_01/bulkdock/openbind_a71ev2a_c1_scaffolds.sdf']

>  <fragmenstein_runtime>  (635) 
4.574456

$$$$
C18930-P134
     RDKit          3D

 16 17  0  0  0  0  0  0  0  0999 V2000
    4.7839   16.9506   26.1914 C   0  0  0  0  0  0  0  0  0  0  0  0
    5.1686   15.6824   25.6768 O   0  0  0  0  0  0  0  0  0  0  0  0
    6.2605   15.8048   24.7609 C   0  0  0  0  0  0  0  0  0  0  0  0
    6.5342   14.4702   24.0728 C   0  0  0  0  0  0  0  0  0  0  0  0
    7.1315   13.2152   25.2516 S   0  0  0  0  0  0  0  0  0  0  0  0
    8.7795   12.8003   24.7339 C   0  0  0  0  0  0  0  0  0  0  0  0
    9.6792   13.7121   24.1415 C   0  0  0  0  0  0  0  0  0  0  0  0
   11.0490   13.4387   24.0837 C   0  0  0  0  0  0  0  0  0  0  0  0
   11.4662   12.2567   24.6501 C   0  0  0  0  0  0  0  0  0  0  0  0
   10.5752   11.2964   25.1182 C   0  0  0  0  0  0  0  0  0  0  0  0
    9.2261   11.5393   25.1608 C   0  0  0  0  0  0  0  0  0  0  0  0
   11.2320   10.1546   25.5595 N   0  0  0  0  0  0  0  0  0  0  0  0
   12.5931   10.3214   25.4970 C   0  0  0  0  0  0  0  0  0  0  0  0
   13.4644    9.5377   25.8027 O   0  0  0  0  0  0  0  0  0  0  0  0
   12.8094   11.7287   24.8921 C   0  0  0  0  0  0  0  0  0  0  0  0
   13.8782   12.2094   24.6007 O   0  0  0  0  0  0  0  0  0  0  0  0
  1  2  1  0
  2  3  1  0
  3  4  1  0
  4  5  1  0
  5  6  1  0
  6  7  2  0
  7  8  1  0
  8  9  2  0
  9 10  1  0
 10 11  2  0
 10 12  1  0
 12 13  1  0
 13 14  2  0
 13 15  1  0
 15 16  2  0
 11  6  1  0
 15  9  1  0
M  END
>  <ref_pdb>  (636) 
A2513a

>  <subsites>  (636) 
1 - Active Site

>  <HIPPO Compound ID>  (636) 
34811

>  <energy_score>  (636) 
-18.771587

>  <fragmenstein_mode>  (636) 
expansion

>  <scratch_subdir>  (636) 
/opt/xchem-fragalysis-2/maxwin/BulkDock/SCRATCH/512201/C18930-P134

>  <smiles>  (636) 
COCCSc1ccc2c(c1)NC(=O)C2=O

>  <alias>  (636) 
C18930-P134

>  <ref_mols>  (636) 
A3975a,A2513a

>  <inspiration_score>  (636) 
None

>  <tags>  (636) 
BulkDock Fragalysis export,fragmenstein_placed,openbind_a71ev2a_c1_knitwork_impure,openbind_a71ev2a_c1_scaffolds

>  <fragmenstein_outcome>  (636) 
acceptable

>  <fragmenstein_error>  (636) 


>  <distance_score>  (636) 
0.982808

>  <inchikey>  (636) 
UWXVEDCEWYGTRJ-UHFFFAOYSA-N

>  <name>  (636) 
C18930-P134

>  <HIPPO Pose ID>  (636) 
379914

>  <Energy>  (636) 
79.568354

>  <exports>  (636) 
['/opt/xchem-fragalysis-2/maxwin/BulkDock/OUTPUTS/openbind_a71ev2a_c1_knitwork_impure_165VXJF.sdf', '/opt/xchem-fragalysis-2/maxwin/BulkDock/OUTPUTS/openbind_a71ev2a_c1_knitwork_impure_1B07QS4.sdf', '/opt/xchem-fragalysis-2/maxwin/BulkDock/OUTPUTS/openbind_a71ev2a_c1_knitwork_impure_1B07X5R.sdf', '/opt/xchem-fragalysis-2/maxwin/openbind-hippo/a71ev2a/openbind_a71ev2a_c1_scaffold_products.sdf', '/opt/xchem-fragalysis-2/maxwin/openbind-hippo/a71ev2a/cycle_01/bulkdock/openbind_a71ev2a_c1_scaffold_products.sdf', '/opt/xchem-fragalysis-2/maxwin/openbind-hippo/a71ev2a/cycle_01/bulkdock/openbind_a71ev2a_c1_scaffolds.sdf']

>  <fragmenstein_runtime>  (636) 
1.085984

$$$$
C2397-P338
     RDKit          3D

 15 15  0  0  0  0  0  0  0  0999 V2000
   10.6558   15.3307   19.6196 C   0  0  0  0  0  0  0  0  0  0  0  0
   10.3033   15.9947   20.9485 C   0  0  0  0  0  0  0  0  0  0  0  0
   11.4941   15.9444   21.9052 C   0  0  0  0  0  0  0  0  0  0  0  0
    8.9961   15.4328   21.5443 C   0  0  0  0  0  0  0  0  0  0  0  0
    9.1608   14.2416   22.4835 C   0  0  0  0  0  0  0  0  0  0  0  0
    7.9696   13.4613   22.6127 O   0  0  0  0  0  0  0  0  0  0  0  0
    6.8690   14.0789   23.2760 C   0  0  0  0  0  0  0  0  0  0  0  0
    6.9458   14.0210   24.8225 C   0  0  1  0  0  0  0  0  0  0  0  0
    7.8642   12.8860   25.2925 C   0  0  0  0  0  0  0  0  0  0  0  0
    7.2790   15.4226   25.4184 C   0  0  2  0  0  0  0  0  0  0  0  0
    7.6333   15.3833   26.9159 C   0  0  0  0  0  0  0  0  0  0  0  0
    7.8974   16.7847   27.4666 C   0  0  0  0  0  0  0  0  0  0  0  0
    6.7359   17.7195   27.1581 C   0  0  0  0  0  0  0  0  0  0  0  0
    6.3759   17.6843   25.6793 C   0  0  0  0  0  0  0  0  0  0  0  0
    6.1212   16.3182   25.2242 N   0  0  0  0  0  0  0  0  0  0  0  0
  1  2  1  0
  2  3  1  0
  2  4  1  0
  4  5  1  0
  5  6  1  0
  6  7  1  0
  7  8  1  0
  8  9  1  6
  8 10  1  0
 10 11  1  1
 11 12  1  0
 12 13  1  0
 13 14  1  0
 14 15  1  0
 15 10  1  0
M  END
>  <ref_pdb>  (637) 
A4237a

>  <subsites>  (637) 
1 - Active Site

>  <HIPPO Compound ID>  (637) 
15735

>  <energy_score>  (637) 
-40.139135

>  <fragmenstein_mode>  (637) 
expansion

>  <scratch_subdir>  (637) 
/opt/xchem-fragalysis-2/maxwin/BulkDock/SCRATCH/512201/C2397-P338

>  <smiles>  (637) 
CC(C)CCOC[C@@H](C)[C@@H]1CCCCN1

>  <alias>  (637) 
C2397-P338

>  <ref_mols>  (637) 
A4237a,A1775a,A0875a

>  <inspiration_score>  (637) 
None

>  <tags>  (637) 
BulkDock Fragalysis export,fragmenstein_placed,openbind_a71ev2a_c1_knitwork_impure,openbind_a71ev2a_c1_scaffolds

>  <fragmenstein_outcome>  (637) 
acceptable

>  <fragmenstein_error>  (637) 


>  <distance_score>  (637) 
0.981474

>  <inchikey>  (637) 
HDCUDRUHFXHSNY-UHFFFAOYSA-N

>  <name>  (637) 
C2397-P338

>  <HIPPO Pose ID>  (637) 
380331

>  <Energy>  (637) 
23.698126

>  <exports>  (637) 
['/opt/xchem-fragalysis-2/maxwin/BulkDock/OUTPUTS/openbind_a71ev2a_c1_knitwork_impure_165VXJF.sdf', '/opt/xchem-fragalysis-2/maxwin/BulkDock/OUTPUTS/openbind_a71ev2a_c1_knitwork_impure_1B07QS4.sdf', '/opt/xchem-fragalysis-2/maxwin/BulkDock/OUTPUTS/openbind_a71ev2a_c1_knitwork_impure_1B07X5R.sdf', '/opt/xchem-fragalysis-2/maxwin/openbind-hippo/a71ev2a/openbind_a71ev2a_c1_scaffold_products.sdf', '/opt/xchem-fragalysis-2/maxwin/openbind-hippo/a71ev2a/cycle_01/bulkdock/openbind_a71ev2a_c1_scaffold_products.sdf', '/opt/xchem-fragalysis-2/maxwin/openbind-hippo/a71ev2a/cycle_01/bulkdock/openbind_a71ev2a_c1_scaffolds.sdf']

>  <fragmenstein_runtime>  (637) 
3.348545

$$$$
C9375-P358
     RDKit          3D

 14 14  0  0  0  0  0  0  0  0999 V2000
   10.5943   15.7725   19.5717 C   0  0  0  0  0  0  0  0  0  0  0  0
   10.9237   14.9449   20.7985 C   0  0  1  0  0  0  0  0  0  0  0  0
   11.9114   15.5901   21.6633 C   0  0  0  0  0  0  0  0  0  0  0  0
   12.5404   15.8952   22.5865 N   0  0  0  0  0  0  0  0  0  0  0  0
    9.6783   14.6768   21.6691 C   0  0  0  0  0  0  0  0  0  0  0  0
   10.0911   13.9961   22.9249 N   0  0  0  0  0  0  0  0  0  0  0  0
    8.9776   13.7877   24.1286 S   0  0  0  0  0  0  0  0  0  0  0  0
    7.9005   14.7288   23.9831 O   0  0  0  0  0  0  0  0  0  0  0  0
    9.7457   13.6938   25.3480 O   0  0  0  0  0  0  0  0  0  0  0  0
    8.3749   12.2622   23.7719 N   0  0  0  0  0  0  0  0  0  0  0  0
    7.4926   11.7436   24.8435 C   0  0  0  0  0  0  0  0  0  0  0  0
    7.6121   10.2341   24.8058 C   0  0  0  0  0  0  0  0  0  0  0  0
    8.7206    9.9035   23.8303 C   0  0  0  0  0  0  0  0  0  0  0  0
    9.3702   11.2196   23.4630 C   0  0  0  0  0  0  0  0  0  0  0  0
  2  1  1  6
  2  3  1  0
  3  4  3  0
  2  5  1  0
  5  6  1  0
  6  7  1  0
  7  8  2  0
  7  9  2  0
  7 10  1  0
 10 11  1  0
 11 12  1  0
 12 13  1  0
 13 14  1  0
 14 10  1  0
M  END
>  <ref_pdb>  (638) 
A4421a

>  <subsites>  (638) 
1 - Active Site

>  <HIPPO Compound ID>  (638) 
21158

>  <energy_score>  (638) 
-20.567376

>  <fragmenstein_mode>  (638) 
expansion

>  <scratch_subdir>  (638) 
/opt/xchem-fragalysis-2/maxwin/BulkDock/SCRATCH/512201/C9375-P358

>  <smiles>  (638) 
C[C@@H](C#N)CNS(=O)(=O)N1CCCC1

>  <alias>  (638) 
C9375-P358

>  <ref_mols>  (638) 
A0719a,A4421a

>  <inspiration_score>  (638) 
None

>  <tags>  (638) 
BulkDock Fragalysis export,fragmenstein_placed,openbind_a71ev2a_c1_knitwork_impure,openbind_a71ev2a_c1_scaffolds

>  <fragmenstein_outcome>  (638) 
acceptable

>  <fragmenstein_error>  (638) 


>  <distance_score>  (638) 
0.979575

>  <inchikey>  (638) 
AJLXANOZRCJDLS-UHFFFAOYSA-N

>  <name>  (638) 
C9375-P358

>  <HIPPO Pose ID>  (638) 
380386

>  <Energy>  (638) 
-164.666862

>  <exports>  (638) 
['/opt/xchem-fragalysis-2/maxwin/BulkDock/OUTPUTS/openbind_a71ev2a_c1_knitwork_impure_165VXJF.sdf', '/opt/xchem-fragalysis-2/maxwin/BulkDock/OUTPUTS/openbind_a71ev2a_c1_knitwork_impure_1B07QS4.sdf', '/opt/xchem-fragalysis-2/maxwin/BulkDock/OUTPUTS/openbind_a71ev2a_c1_knitwork_impure_1B07X5R.sdf', '/opt/xchem-fragalysis-2/maxwin/openbind-hippo/a71ev2a/openbind_a71ev2a_c1_scaffold_products.sdf', '/opt/xchem-fragalysis-2/maxwin/openbind-hippo/a71ev2a/cycle_01/bulkdock/openbind_a71ev2a_c1_scaffold_products.sdf', '/opt/xchem-fragalysis-2/maxwin/openbind-hippo/a71ev2a/cycle_01/bulkdock/openbind_a71ev2a_c1_scaffolds.sdf']

>  <fragmenstein_runtime>  (638) 
8.348678

$$$$
C9378-P358
     RDKit          3D

 15 15  0  0  0  0  0  0  0  0999 V2000
   11.3668   13.0436   24.3931 C   0  0  0  0  0  0  0  0  0  0  0  0
   10.4546   14.1591   24.8520 C   0  0  0  0  0  0  0  0  0  0  0  0
    9.3168   14.5512   23.8807 C   0  0  2  0  0  0  0  0  0  0  0  0
    8.6428   15.6090   24.5997 O   0  0  0  0  0  0  0  0  0  0  0  0
    8.1374   13.5296   23.7665 C   0  0  0  0  0  0  0  0  0  0  0  0
    7.2835   13.6482   22.8759 O   0  0  0  0  0  0  0  0  0  0  0  0
    7.9324   12.4751   24.8582 C   0  0  2  0  0  0  0  0  0  0  0  0
    8.0458   11.0562   24.3423 C   0  0  0  0  0  0  0  0  0  0  0  0
    7.1093   10.2534   25.2234 C   0  0  0  0  0  0  0  0  0  0  0  0
    6.3152   11.2619   26.0272 C   0  0  0  0  0  0  0  0  0  0  0  0
    6.5521   12.5564   25.3986 N   0  0  0  0  0  0  0  0  0  0  0  0
    9.8486   15.0919   22.4780 C   0  0  0  0  0  0  0  0  0  0  0  0
   11.2324   15.7848   22.5746 C   0  0  0  0  0  0  0  0  0  0  0  0
   10.0200   13.9550   21.4770 C   0  0  0  0  0  0  0  0  0  0  0  0
    8.8853   16.0787   21.7639 C   0  0  0  0  0  0  0  0  0  0  0  0
  1  2  1  0
  2  3  1  0
  3  4  1  1
  3  5  1  0
  5  6  2  0
  7  5  1  6
  7  8  1  0
  8  9  1  0
  9 10  1  0
 10 11  1  0
  3 12  1  0
 12 13  1  0
 12 14  1  0
 12 15  1  0
 11  7  1  0
M  END
>  <ref_pdb>  (639) 
A4421a

>  <subsites>  (639) 
1 - Active Site

>  <HIPPO Compound ID>  (639) 
14078

>  <energy_score>  (639) 
-21.063486

>  <fragmenstein_mode>  (639) 
expansion

>  <scratch_subdir>  (639) 
/opt/xchem-fragalysis-2/maxwin/BulkDock/SCRATCH/512201/C9378-P358

>  <smiles>  (639) 
CC[C@](O)(C(=O)[C@@H]1CCCN1)C(C)(C)C

>  <alias>  (639) 
C9378-P358

>  <ref_mols>  (639) 
A0719a,A4421a

>  <inspiration_score>  (639) 
None

>  <tags>  (639) 
BulkDock Fragalysis export,fragmenstein_placed,openbind_a71ev2a_c1_knitwork_impure,openbind_a71ev2a_c1_scaffolds

>  <fragmenstein_outcome>  (639) 
acceptable

>  <fragmenstein_error>  (639) 


>  <distance_score>  (639) 
0.972523

>  <inchikey>  (639) 
NBHXHSMIGQMUER-UHFFFAOYSA-N

>  <name>  (639) 
C9378-P358

>  <HIPPO Pose ID>  (639) 
380389

>  <Energy>  (639) 
100.759318

>  <exports>  (639) 
['/opt/xchem-fragalysis-2/maxwin/BulkDock/OUTPUTS/openbind_a71ev2a_c1_knitwork_impure_165VXJF.sdf', '/opt/xchem-fragalysis-2/maxwin/BulkDock/OUTPUTS/openbind_a71ev2a_c1_knitwork_impure_1B07QS4.sdf', '/opt/xchem-fragalysis-2/maxwin/BulkDock/OUTPUTS/openbind_a71ev2a_c1_knitwork_impure_1B07X5R.sdf', '/opt/xchem-fragalysis-2/maxwin/openbind-hippo/a71ev2a/openbind_a71ev2a_c1_scaffold_products.sdf', '/opt/xchem-fragalysis-2/maxwin/openbind-hippo/a71ev2a/cycle_01/bulkdock/openbind_a71ev2a_c1_scaffold_products.sdf', '/opt/xchem-fragalysis-2/maxwin/openbind-hippo/a71ev2a/cycle_01/bulkdock/openbind_a71ev2a_c1_scaffolds.sdf']

>  <fragmenstein_runtime>  (639) 
3.817441

$$$$
C9379-P358
     RDKit          3D

 14 14  0  0  0  0  0  0  0  0999 V2000
   10.9830   15.5558   19.0666 C   0  0  0  0  0  0  0  0  0  0  0  0
   11.2853   14.7659   20.3183 C   0  0  0  0  0  0  0  0  0  0  0  0
   11.6602   15.6245   21.5244 C   0  0  0  0  0  0  0  0  0  0  0  0
   11.4045   14.8621   22.8270 C   0  0  0  0  0  0  0  0  0  0  0  0
    9.9011   14.7823   23.1065 C   0  0  0  0  0  0  0  0  0  0  0  0
    9.5385   13.8319   24.2380 C   0  0  1  0  0  0  0  0  0  0  0  0
   10.2354   14.1833   25.4304 O   0  0  0  0  0  0  0  0  0  0  0  0
    8.0418   13.9377   24.5294 C   0  0  0  0  0  0  0  0  0  0  0  0
    7.5339   15.0547   24.6981 O   0  0  0  0  0  0  0  0  0  0  0  0
    7.2001   12.6764   24.6980 C   0  0  1  0  0  0  0  0  0  0  0  0
    7.8850   11.3342   24.5851 C   0  0  0  0  0  0  0  0  0  0  0  0
    7.0104   10.3850   25.3735 C   0  0  0  0  0  0  0  0  0  0  0  0
    6.1501   11.2632   26.2575 C   0  0  0  0  0  0  0  0  0  0  0  0
    6.5869   12.6381   26.0488 N   0  0  0  0  0  0  0  0  0  0  0  0
  1  2  1  0
  2  3  1  0
  3  4  1  0
  4  5  1  0
  5  6  1  0
  6  7  1  1
  6  8  1  0
  8  9  2  0
 10  8  1  1
 10 11  1  0
 11 12  1  0
 12 13  1  0
 13 14  1  0
 14 10  1  0
M  END
>  <ref_pdb>  (640) 
A4421a

>  <subsites>  (640) 
1 - Active Site

>  <HIPPO Compound ID>  (640) 
84544

>  <energy_score>  (640) 
-12.999707

>  <fragmenstein_mode>  (640) 
expansion

>  <scratch_subdir>  (640) 
/opt/xchem-fragalysis-2/maxwin/BulkDock/SCRATCH/512201/C9379-P358

>  <smiles>  (640) 
CCCCC[C@@H](O)C(=O)[C@H]1CCCN1

>  <alias>  (640) 
C9379-P358

>  <ref_mols>  (640) 
A0719a,A4421a

>  <inspiration_score>  (640) 
None

>  <tags>  (640) 
BulkDock Fragalysis export,fragmenstein_placed,openbind_a71ev2a_c1_knitwork_impure,openbind_a71ev2a_c1_scaffolds

>  <fragmenstein_outcome>  (640) 
acceptable

>  <fragmenstein_error>  (640) 


>  <distance_score>  (640) 
0.870702

>  <inchikey>  (640) 
FYRXYDPVISKWNM-UHFFFAOYSA-N

>  <name>  (640) 
C9379-P358

>  <HIPPO Pose ID>  (640) 
380390

>  <Energy>  (640) 
71.274899

>  <exports>  (640) 
['/opt/xchem-fragalysis-2/maxwin/BulkDock/OUTPUTS/openbind_a71ev2a_c1_knitwork_impure_165VXJF.sdf', '/opt/xchem-fragalysis-2/maxwin/BulkDock/OUTPUTS/openbind_a71ev2a_c1_knitwork_impure_1B07QS4.sdf', '/opt/xchem-fragalysis-2/maxwin/BulkDock/OUTPUTS/openbind_a71ev2a_c1_knitwork_impure_1B07X5R.sdf', '/opt/xchem-fragalysis-2/maxwin/openbind-hippo/a71ev2a/openbind_a71ev2a_c1_scaffold_products.sdf', '/opt/xchem-fragalysis-2/maxwin/openbind-hippo/a71ev2a/cycle_01/bulkdock/openbind_a71ev2a_c1_scaffold_products.sdf', '/opt/xchem-fragalysis-2/maxwin/openbind-hippo/a71ev2a/cycle_01/bulkdock/openbind_a71ev2a_c1_scaffolds.sdf']

>  <fragmenstein_runtime>  (640) 
2.498385

$$$$
C9394-P358
     RDKit          3D

 13 13  0  0  0  0  0  0  0  0999 V2000
    5.8915   11.1876   26.9836 C   0  0  0  0  0  0  0  0  0  0  0  0
    6.3687   10.4484   25.9723 C   0  0  0  0  0  0  0  0  0  0  0  0
    7.4499   10.7800   24.9800 C   0  0  0  0  0  0  0  0  0  0  0  0
    8.1667   11.9617   25.3007 O   0  0  0  0  0  0  0  0  0  0  0  0
    7.4436   13.1699   25.0518 C   0  0  0  0  0  0  0  0  0  0  0  0
    8.0043   14.0169   23.9058 C   0  0  2  0  0  0  0  0  0  0  0  0
    7.2503   13.7350   22.7209 O   0  0  0  0  0  0  0  0  0  0  0  0
    9.5147   13.8097   23.6909 C   0  0  0  0  0  0  0  0  0  0  0  0
   10.1185   14.8732   22.8753 N   0  0  0  0  0  0  0  0  0  0  0  0
   11.5808   14.8440   22.9251 C   0  0  0  0  0  0  0  0  0  0  0  0
   11.9396   15.7727   21.7862 C   0  0  0  0  0  0  0  0  0  0  0  0
   10.9792   15.3532   20.6938 C   0  0  0  0  0  0  0  0  0  0  0  0
    9.7711   14.8095   21.4471 C   0  0  0  0  0  0  0  0  0  0  0  0
  1  2  2  0
  2  3  1  0
  3  4  1  0
  4  5  1  0
  5  6  1  0
  6  7  1  6
  6  8  1  0
  8  9  1  0
  9 10  1  0
 10 11  1  0
 11 12  1  0
 12 13  1  0
 13  9  1  0
M  END
>  <ref_pdb>  (641) 
A4421a

>  <subsites>  (641) 
1 - Active Site

>  <HIPPO Compound ID>  (641) 
2400

>  <energy_score>  (641) 
-65.151936

>  <fragmenstein_mode>  (641) 
expansion

>  <scratch_subdir>  (641) 
/opt/xchem-fragalysis-2/maxwin/BulkDock/SCRATCH/512201/C9394-P358

>  <smiles>  (641) 
C=CCOC[C@H](O)CN1CCCC1

>  <alias>  (641) 
C9394-P358

>  <ref_mols>  (641) 
A0719a,A4421a

>  <inspiration_score>  (641) 
None

>  <tags>  (641) 
BulkDock Fragalysis export,fragmenstein_placed,openbind_a71ev2a_c1_knitwork_impure,openbind_a71ev2a_c1_scaffolds

>  <fragmenstein_outcome>  (641) 
acceptable

>  <fragmenstein_error>  (641) 


>  <distance_score>  (641) 
0.90328

>  <inchikey>  (641) 
RAJZPRJBARPLQW-UHFFFAOYSA-N

>  <name>  (641) 
C9394-P358

>  <HIPPO Pose ID>  (641) 
380400

>  <Energy>  (641) 
60.173601

>  <exports>  (641) 
['/opt/xchem-fragalysis-2/maxwin/BulkDock/OUTPUTS/openbind_a71ev2a_c1_knitwork_impure_165VXJF.sdf', '/opt/xchem-fragalysis-2/maxwin/BulkDock/OUTPUTS/openbind_a71ev2a_c1_knitwork_impure_1B07QS4.sdf', '/opt/xchem-fragalysis-2/maxwin/BulkDock/OUTPUTS/openbind_a71ev2a_c1_knitwork_impure_1B07X5R.sdf', '/opt/xchem-fragalysis-2/maxwin/openbind-hippo/a71ev2a/openbind_a71ev2a_c1_scaffold_products.sdf', '/opt/xchem-fragalysis-2/maxwin/openbind-hippo/a71ev2a/cycle_01/bulkdock/openbind_a71ev2a_c1_scaffold_products.sdf', '/opt/xchem-fragalysis-2/maxwin/openbind-hippo/a71ev2a/cycle_01/bulkdock/openbind_a71ev2a_c1_scaffolds.sdf']

>  <fragmenstein_runtime>  (641) 
2.011682

$$$$
C7070-P174
     RDKit          3D

 14 14  0  0  0  0  0  0  0  0999 V2000
    5.1564   13.3352   26.8253 N   0  0  0  0  0  0  0  0  0  0  0  0
    5.5301   12.2476   26.6791 C   0  0  0  0  0  0  0  0  0  0  0  0
    6.1018   10.9160   26.5417 C   0  0  0  0  0  0  0  0  0  0  0  0
    6.9027   10.7205   25.2644 C   0  0  0  0  0  0  0  0  0  0  0  0
    6.7984    9.7255   24.6586 O   0  0  0  0  0  0  0  0  0  0  0  0
    7.8358   11.9440   25.0392 N   0  0  0  0  0  0  0  0  0  0  0  0
    8.7643   12.2333   23.9660 C   0  0  0  0  0  0  0  0  0  0  0  0
    8.4956   13.6237   23.3516 C   0  0  0  0  0  0  0  0  0  0  0  0
    9.4415   14.0224   22.3047 N   0  0  0  0  0  0  0  0  0  0  0  0
   10.8400   14.0259   22.7666 C   0  0  0  0  0  0  0  0  0  0  0  0
   11.7698   14.9885   22.0213 C   0  0  0  0  0  0  0  0  0  0  0  0
   11.3849   15.1576   20.5673 C   0  0  0  0  0  0  0  0  0  0  0  0
    9.9226   15.5782   20.4393 C   0  0  0  0  0  0  0  0  0  0  0  0
    9.0766   15.3003   21.6877 C   0  0  0  0  0  0  0  0  0  0  0  0
  1  2  3  0
  2  3  1  0
  3  4  1  0
  4  5  2  0
  4  6  1  0
  6  7  1  0
  7  8  1  0
  8  9  1  0
  9 10  1  0
 10 11  1  0
 11 12  1  0
 12 13  1  0
 13 14  1  0
 14  9  1  0
M  END
>  <ref_pdb>  (642) 
A3371a

>  <subsites>  (642) 
1 - Active Site

>  <HIPPO Compound ID>  (642) 
4528

>  <energy_score>  (642) 
-6.057377

>  <fragmenstein_mode>  (642) 
expansion

>  <scratch_subdir>  (642) 
/opt/xchem-fragalysis-2/maxwin/BulkDock/SCRATCH/512201/C7070-P174

>  <smiles>  (642) 
N#CCC(=O)NCCN1CCCCC1

>  <alias>  (642) 
C7070-P174

>  <ref_mols>  (642) 
A3371a,A4320a

>  <inspiration_score>  (642) 
None

>  <tags>  (642) 
BulkDock Fragalysis export,fragmenstein_placed,openbind_a71ev2a_c1_knitwork_impure,openbind_a71ev2a_c1_scaffolds

>  <fragmenstein_outcome>  (642) 
acceptable

>  <fragmenstein_error>  (642) 


>  <distance_score>  (642) 
0.979634

>  <inchikey>  (642) 
BGXAVSVRYXHJHI-UHFFFAOYSA-N

>  <name>  (642) 
C7070-P174

>  <HIPPO Pose ID>  (642) 
380753

>  <Energy>  (642) 
29.299251

>  <exports>  (642) 
['/opt/xchem-fragalysis-2/maxwin/BulkDock/OUTPUTS/openbind_a71ev2a_c1_knitwork_impure_165VXJF.sdf', '/opt/xchem-fragalysis-2/maxwin/BulkDock/OUTPUTS/openbind_a71ev2a_c1_knitwork_impure_1B07QS4.sdf', '/opt/xchem-fragalysis-2/maxwin/BulkDock/OUTPUTS/openbind_a71ev2a_c1_knitwork_impure_1B07X5R.sdf', '/opt/xchem-fragalysis-2/maxwin/openbind-hippo/a71ev2a/openbind_a71ev2a_c1_scaffold_products.sdf', '/opt/xchem-fragalysis-2/maxwin/openbind-hippo/a71ev2a/cycle_01/bulkdock/openbind_a71ev2a_c1_scaffold_products.sdf', '/opt/xchem-fragalysis-2/maxwin/openbind-hippo/a71ev2a/cycle_01/bulkdock/openbind_a71ev2a_c1_scaffolds.sdf']

>  <fragmenstein_runtime>  (642) 
2.040915

$$$$
C2408-P437
     RDKit          3D

 15 15  0  0  0  0  0  0  0  0999 V2000
    9.8880    8.9757   23.8642 C   0  0  0  0  0  0  0  0  0  0  0  0
    8.6005    9.6121   24.3601 C   0  0  0  0  0  0  0  0  0  0  0  0
    8.8094   10.8738   25.2077 C   0  0  2  0  0  0  0  0  0  0  0  0
    7.5151   11.3723   25.8320 C   0  0  0  0  0  0  0  0  0  0  0  0
    9.6846   11.9399   24.5445 C   0  0  0  0  0  0  0  0  0  0  0  0
   10.9043   11.8725   24.7927 O   0  0  0  0  0  0  0  0  0  0  0  0
    9.1390   12.9448   23.4699 C   0  0  0  0  0  0  0  0  0  0  0  0
    7.6382   12.7827   23.1583 C   0  0  0  0  0  0  0  0  0  0  0  0
    9.9141   12.5359   22.2316 C   0  0  0  0  0  0  0  0  0  0  0  0
    9.3354   14.3788   23.8298 N   0  0  0  0  0  0  0  0  0  0  0  0
   10.5409   14.7366   24.5791 C   0  0  0  0  0  0  0  0  0  0  0  0
   11.8039   14.8110   23.7312 C   0  0  0  0  0  0  0  0  0  0  0  0
   11.6126   15.8069   22.6001 C   0  0  0  0  0  0  0  0  0  0  0  0
   10.3440   15.5871   21.7995 C   0  0  0  0  0  0  0  0  0  0  0  0
    9.1367   15.3430   22.7163 C   0  0  0  0  0  0  0  0  0  0  0  0
  1  2  1  0
  2  3  1  0
  3  4  1  6
  3  5  1  0
  5  6  2  0
  5  7  1  0
  7  8  1  0
  7  9  1  0
  7 10  1  0
 10 11  1  0
 11 12  1  0
 12 13  1  0
 13 14  1  0
 14 15  1  0
 15 10  1  0
M  END
>  <ref_pdb>  (643) 
A4701a

>  <subsites>  (643) 
1 - Active Site

>  <HIPPO Compound ID>  (643) 
10535

>  <energy_score>  (643) 
-41.376083

>  <fragmenstein_mode>  (643) 
expansion

>  <scratch_subdir>  (643) 
/opt/xchem-fragalysis-2/maxwin/BulkDock/SCRATCH/512201/C2408-P437

>  <smiles>  (643) 
CC[C@H](C)C(=O)C(C)(C)N1CCCCC1

>  <alias>  (643) 
C2408-P437

>  <ref_mols>  (643) 
A1775a,A4701a

>  <inspiration_score>  (643) 
None

>  <tags>  (643) 
BulkDock Fragalysis export,fragmenstein_placed,openbind_a71ev2a_c1_knitwork_impure,openbind_a71ev2a_c1_scaffolds

>  <fragmenstein_outcome>  (643) 
acceptable

>  <fragmenstein_error>  (643) 


>  <distance_score>  (643) 
0.982226

>  <inchikey>  (643) 
XJPJCIMCDCBUDM-UHFFFAOYSA-N

>  <name>  (643) 
C2408-P437

>  <HIPPO Pose ID>  (643) 
380820

>  <Energy>  (643) 
70.965433

>  <exports>  (643) 
['/opt/xchem-fragalysis-2/maxwin/BulkDock/OUTPUTS/openbind_a71ev2a_c1_knitwork_impure_165VXJF.sdf', '/opt/xchem-fragalysis-2/maxwin/BulkDock/OUTPUTS/openbind_a71ev2a_c1_knitwork_impure_1B07QS4.sdf', '/opt/xchem-fragalysis-2/maxwin/BulkDock/OUTPUTS/openbind_a71ev2a_c1_knitwork_impure_1B07X5R.sdf', '/opt/xchem-fragalysis-2/maxwin/openbind-hippo/a71ev2a/openbind_a71ev2a_c1_scaffold_products.sdf', '/opt/xchem-fragalysis-2/maxwin/openbind-hippo/a71ev2a/cycle_01/bulkdock/openbind_a71ev2a_c1_scaffold_products.sdf', '/opt/xchem-fragalysis-2/maxwin/openbind-hippo/a71ev2a/cycle_01/bulkdock/openbind_a71ev2a_c1_scaffolds.sdf']

>  <fragmenstein_runtime>  (643) 
7.902886

$$$$
C7634-P305
     RDKit          3D

 12 12  0  0  0  0  0  0  0  0999 V2000
   11.0852   15.5756   19.3167 C   0  0  0  0  0  0  0  0  0  0  0  0
   11.1432   15.1976   20.7867 C   0  0  0  0  0  0  0  0  0  0  0  0
    9.7712   15.2802   21.4358 C   0  0  0  0  0  0  0  0  0  0  0  0
    9.7676   14.6937   23.1265 S   0  0  0  0  0  0  0  0  0  0  0  0
    8.4959   15.0290   23.7224 O   0  0  0  0  0  0  0  0  0  0  0  0
   11.0119   15.0329   23.7800 O   0  0  0  0  0  0  0  0  0  0  0  0
    9.7693   13.0029   22.9333 N   0  0  0  0  0  0  0  0  0  0  0  0
    9.5593   12.2421   24.2058 C   0  0  0  0  0  0  0  0  0  0  0  0
    8.1322   12.3873   24.7660 C   0  0  0  0  0  0  0  0  0  0  0  0
    7.7611   11.0008   25.1818 C   0  0  0  0  0  0  0  0  0  0  0  0
    8.6314   10.0967   24.7290 C   0  0  0  0  0  0  0  0  0  0  0  0
    9.7455   10.7316   23.9709 C   0  0  0  0  0  0  0  0  0  0  0  0
  1  2  1  0
  2  3  1  0
  3  4  1  0
  4  5  2  0
  4  6  2  0
  4  7  1  0
  7  8  1  0
  8  9  1  0
  9 10  1  0
 10 11  2  0
 11 12  1  0
 12  8  1  0
M  END
>  <ref_pdb>  (644) 
A4321b

>  <subsites>  (644) 
1 - Active Site

>  <HIPPO Compound ID>  (644) 
27676

>  <energy_score>  (644) 
-34.101651

>  <fragmenstein_mode>  (644) 
expansion

>  <scratch_subdir>  (644) 
/opt/xchem-fragalysis-2/maxwin/BulkDock/SCRATCH/512201/C7634-P305

>  <smiles>  (644) 
CCCS(=O)(=O)NC1CC=CC1

>  <alias>  (644) 
C7634-P305

>  <ref_mols>  (644) 
A4321b,A0719a

>  <inspiration_score>  (644) 
None

>  <tags>  (644) 
BulkDock Fragalysis export,fragmenstein_placed,openbind_a71ev2a_c1_knitwork_impure,openbind_a71ev2a_c1_scaffolds

>  <fragmenstein_outcome>  (644) 
acceptable

>  <fragmenstein_error>  (644) 


>  <distance_score>  (644) 
0.810766

>  <inchikey>  (644) 
UILMKCCWNFQJCT-UHFFFAOYSA-N

>  <name>  (644) 
C7634-P305

>  <HIPPO Pose ID>  (644) 
381471

>  <Energy>  (644) 
-40.394122

>  <exports>  (644) 
['/opt/xchem-fragalysis-2/maxwin/BulkDock/OUTPUTS/openbind_a71ev2a_c1_knitwork_impure_165VXJF.sdf', '/opt/xchem-fragalysis-2/maxwin/BulkDock/OUTPUTS/openbind_a71ev2a_c1_knitwork_impure_1B07QS4.sdf', '/opt/xchem-fragalysis-2/maxwin/BulkDock/OUTPUTS/openbind_a71ev2a_c1_knitwork_impure_1B07X5R.sdf', '/opt/xchem-fragalysis-2/maxwin/openbind-hippo/a71ev2a/openbind_a71ev2a_c1_scaffold_products.sdf', '/opt/xchem-fragalysis-2/maxwin/openbind-hippo/a71ev2a/cycle_01/bulkdock/openbind_a71ev2a_c1_scaffold_products.sdf', '/opt/xchem-fragalysis-2/maxwin/openbind-hippo/a71ev2a/cycle_01/bulkdock/openbind_a71ev2a_c1_scaffolds.sdf']

>  <fragmenstein_runtime>  (644) 
14.236834

$$$$
C9121-P248
     RDKit          3D

 11 11  0  0  0  0  0  0  0  0999 V2000
    8.0301   10.8549   24.5840 C   0  0  0  0  0  0  0  0  0  0  0  0
    7.7872   12.3035   24.2170 C   0  0  0  0  0  0  0  0  0  0  0  0
    9.0156   13.1808   24.3359 C   0  0  0  0  0  0  0  0  0  0  0  0
   10.0320   12.8110   24.9230 O   0  0  0  0  0  0  0  0  0  0  0  0
    8.8870   14.5742   23.7332 C   0  0  0  0  0  0  0  0  0  0  0  0
    9.9738   14.8491   22.8207 N   0  0  0  0  0  0  0  0  0  0  0  0
    9.8022   14.8803   21.3897 C   0  0  0  0  0  0  0  0  0  0  0  0
   11.2216   14.9806   20.8740 C   0  0  0  0  0  0  0  0  0  0  0  0
   11.9303   15.7787   21.9552 C   0  0  0  0  0  0  0  0  0  0  0  0
   11.1764   15.4143   23.2065 C   0  0  0  0  0  0  0  0  0  0  0  0
   11.5338   15.6560   24.3490 O   0  0  0  0  0  0  0  0  0  0  0  0
  1  2  1  0
  2  3  1  0
  3  4  2  0
  3  5  1  0
  5  6  1  0
  6  7  1  0
  7  8  1  0
  8  9  1  0
  9 10  1  0
 10 11  2  0
 10  6  1  0
M  END
>  <ref_pdb>  (645) 
A3956a

>  <subsites>  (645) 
1 - Active Site

>  <HIPPO Compound ID>  (645) 
1811

>  <energy_score>  (645) 
-18.366424

>  <fragmenstein_mode>  (645) 
expansion

>  <scratch_subdir>  (645) 
/opt/xchem-fragalysis-2/maxwin/BulkDock/SCRATCH/512201/C9121-P248

>  <smiles>  (645) 
CCC(=O)CN1CCCC1=O

>  <alias>  (645) 
C9121-P248

>  <ref_mols>  (645) 
A3956a,A1779a

>  <inspiration_score>  (645) 
None

>  <tags>  (645) 
BulkDock Fragalysis export,fragmenstein_placed,openbind_a71ev2a_c1_knitwork_impure,openbind_a71ev2a_c1_scaffolds

>  <fragmenstein_outcome>  (645) 
acceptable

>  <fragmenstein_error>  (645) 


>  <distance_score>  (645) 
0.639358

>  <inchikey>  (645) 
KQPUFQLGSXQISW-UHFFFAOYSA-N

>  <name>  (645) 
C9121-P248

>  <HIPPO Pose ID>  (645) 
381673

>  <Energy>  (645) 
7.319617

>  <exports>  (645) 
['/opt/xchem-fragalysis-2/maxwin/BulkDock/OUTPUTS/openbind_a71ev2a_c1_knitwork_impure_165VXJF.sdf', '/opt/xchem-fragalysis-2/maxwin/BulkDock/OUTPUTS/openbind_a71ev2a_c1_knitwork_impure_1B07QS4.sdf', '/opt/xchem-fragalysis-2/maxwin/BulkDock/OUTPUTS/openbind_a71ev2a_c1_knitwork_impure_1B07X5R.sdf', '/opt/xchem-fragalysis-2/maxwin/openbind-hippo/a71ev2a/openbind_a71ev2a_c1_scaffold_products.sdf', '/opt/xchem-fragalysis-2/maxwin/openbind-hippo/a71ev2a/cycle_01/bulkdock/openbind_a71ev2a_c1_scaffold_products.sdf', '/opt/xchem-fragalysis-2/maxwin/openbind-hippo/a71ev2a/cycle_01/bulkdock/openbind_a71ev2a_c1_scaffolds.sdf']

>  <fragmenstein_runtime>  (645) 
1.066058

$$$$
C9144-P248
     RDKit          3D

 13 13  0  0  0  0  0  0  0  0999 V2000
   11.4380   15.6194   24.2706 O   0  0  0  0  0  0  0  0  0  0  0  0
   11.1473   15.3587   23.1128 C   0  0  0  0  0  0  0  0  0  0  0  0
   11.9079   15.8220   21.8973 C   0  0  0  0  0  0  0  0  0  0  0  0
   11.2500   15.0685   20.7535 C   0  0  0  0  0  0  0  0  0  0  0  0
    9.8411   14.8517   21.2560 C   0  0  0  0  0  0  0  0  0  0  0  0
   10.0252   14.6648   22.6738 N   0  0  0  0  0  0  0  0  0  0  0  0
    8.9284   14.2986   23.5498 C   0  0  0  0  0  0  0  0  0  0  0  0
    9.2742   13.0907   24.4063 C   0  0  0  0  0  0  0  0  0  0  0  0
   10.4118   12.8772   24.8347 O   0  0  0  0  0  0  0  0  0  0  0  0
    8.1014   12.1968   24.7342 C   0  0  0  0  0  0  0  0  0  0  0  0
    7.7751   11.3763   23.7055 F   0  0  0  0  0  0  0  0  0  0  0  0
    6.9920   12.9145   25.0483 F   0  0  0  0  0  0  0  0  0  0  0  0
    8.3290   11.3876   25.8001 F   0  0  0  0  0  0  0  0  0  0  0  0
  1  2  2  0
  2  3  1  0
  3  4  1  0
  4  5  1  0
  5  6  1  0
  6  7  1  0
  7  8  1  0
  8  9  2  0
  8 10  1  0
 10 11  1  0
 10 12  1  0
 10 13  1  0
  6  2  1  0
M  END
>  <ref_pdb>  (646) 
A3956a

>  <subsites>  (646) 
1 - Active Site

>  <HIPPO Compound ID>  (646) 
2390

>  <energy_score>  (646) 
-8.957829

>  <fragmenstein_mode>  (646) 
expansion

>  <scratch_subdir>  (646) 
/opt/xchem-fragalysis-2/maxwin/BulkDock/SCRATCH/512201/C9144-P248

>  <smiles>  (646) 
O=C1CCCN1CC(=O)C(F)(F)F

>  <alias>  (646) 
C9144-P248

>  <ref_mols>  (646) 
A3956a,A1779a

>  <inspiration_score>  (646) 
None

>  <tags>  (646) 
BulkDock Fragalysis export,fragmenstein_placed,openbind_a71ev2a_c1_knitwork_impure,openbind_a71ev2a_c1_scaffolds

>  <fragmenstein_outcome>  (646) 
acceptable

>  <fragmenstein_error>  (646) 


>  <distance_score>  (646) 
0.695556

>  <inchikey>  (646) 
GRCPKGYTKXKWFK-UHFFFAOYSA-N

>  <name>  (646) 
C9144-P248

>  <HIPPO Pose ID>  (646) 
381701

>  <Energy>  (646) 
37.846307

>  <exports>  (646) 
['/opt/xchem-fragalysis-2/maxwin/BulkDock/OUTPUTS/openbind_a71ev2a_c1_knitwork_impure_165VXJF.sdf', '/opt/xchem-fragalysis-2/maxwin/BulkDock/OUTPUTS/openbind_a71ev2a_c1_knitwork_impure_1B07QS4.sdf', '/opt/xchem-fragalysis-2/maxwin/BulkDock/OUTPUTS/openbind_a71ev2a_c1_knitwork_impure_1B07X5R.sdf', '/opt/xchem-fragalysis-2/maxwin/openbind-hippo/a71ev2a/openbind_a71ev2a_c1_scaffold_products.sdf', '/opt/xchem-fragalysis-2/maxwin/openbind-hippo/a71ev2a/cycle_01/bulkdock/openbind_a71ev2a_c1_scaffold_products.sdf', '/opt/xchem-fragalysis-2/maxwin/openbind-hippo/a71ev2a/cycle_01/bulkdock/openbind_a71ev2a_c1_scaffolds.sdf']

>  <fragmenstein_runtime>  (646) 
1.051432

$$$$
C13911-P248
     RDKit          3D

 15 16  0  0  0  0  0  0  0  0999 V2000
    5.5327   11.3317   26.9065 C   0  0  0  0  0  0  0  0  0  0  0  0
    6.6912   11.3792   26.0543 N   0  0  0  0  0  0  0  0  0  0  0  0
    7.0948   12.6162   25.4608 C   0  0  0  0  0  0  0  0  0  0  0  0
    8.3695   12.2534   24.7188 C   0  0  2  0  0  0  0  0  0  0  0  0
    8.6140   13.0902   23.4832 C   0  0  0  0  0  0  0  0  0  0  0  0
    8.6047   14.5776   23.8006 C   0  0  0  0  0  0  0  0  0  0  0  0
    8.8453   15.3275   22.5961 N   0  0  0  0  0  0  0  0  0  0  0  0
   10.0633   15.3142   22.0238 C   0  0  0  0  0  0  0  0  0  0  0  0
   10.1998   15.2229   20.7260 N   0  0  0  0  0  0  0  0  0  0  0  0
   11.5296   15.2973   20.4041 C   0  0  0  0  0  0  0  0  0  0  0  0
   12.3736   15.5390   21.4601 C   0  0  0  0  0  0  0  0  0  0  0  0
   11.5275   15.4399   22.9249 S   0  0  0  0  0  0  0  0  0  0  0  0
    8.2057   10.7797   24.3653 C   0  0  0  0  0  0  0  0  0  0  0  0
    7.1240   10.3105   25.2877 C   0  0  0  0  0  0  0  0  0  0  0  0
    6.6932    9.1737   25.3056 O   0  0  0  0  0  0  0  0  0  0  0  0
  1  2  1  0
  2  3  1  0
  3  4  1  0
  4  5  1  6
  5  6  1  0
  6  7  1  0
  7  8  1  0
  8  9  2  0
  9 10  1  0
 10 11  2  0
 11 12  1  0
  4 13  1  0
 13 14  1  0
 14 15  2  0
 14  2  1  0
 12  8  1  0
M  END
>  <ref_pdb>  (647) 
A3956a

>  <subsites>  (647) 
1 - Active Site

>  <HIPPO Compound ID>  (647) 
1361

>  <energy_score>  (647) 
-58.685839

>  <fragmenstein_mode>  (647) 
expansion

>  <scratch_subdir>  (647) 
/opt/xchem-fragalysis-2/maxwin/BulkDock/SCRATCH/512201/C13911-P248

>  <smiles>  (647) 
CN1C[C@H](CCNc2nccs2)CC1=O

>  <alias>  (647) 
C13911-P248

>  <ref_mols>  (647) 
A3956a,A0556a

>  <inspiration_score>  (647) 
None

>  <tags>  (647) 
BulkDock Fragalysis export,fragmenstein_placed,openbind_a71ev2a_c1_knitwork_impure,openbind_a71ev2a_c1_scaffolds

>  <fragmenstein_outcome>  (647) 
acceptable

>  <fragmenstein_error>  (647) 


>  <distance_score>  (647) 
0.982742

>  <inchikey>  (647) 
AQILHIUWLDOOHJ-UHFFFAOYSA-N

>  <name>  (647) 
C13911-P248

>  <HIPPO Pose ID>  (647) 
381764

>  <Energy>  (647) 
-38.545331

>  <exports>  (647) 
['/opt/xchem-fragalysis-2/maxwin/BulkDock/OUTPUTS/openbind_a71ev2a_c1_knitwork_impure_165VXJF.sdf', '/opt/xchem-fragalysis-2/maxwin/BulkDock/OUTPUTS/openbind_a71ev2a_c1_knitwork_impure_1B07QS4.sdf', '/opt/xchem-fragalysis-2/maxwin/BulkDock/OUTPUTS/openbind_a71ev2a_c1_knitwork_impure_1B07X5R.sdf', '/opt/xchem-fragalysis-2/maxwin/openbind-hippo/a71ev2a/openbind_a71ev2a_c1_scaffold_products.sdf', '/opt/xchem-fragalysis-2/maxwin/openbind-hippo/a71ev2a/cycle_01/bulkdock/openbind_a71ev2a_c1_scaffold_products.sdf', '/opt/xchem-fragalysis-2/maxwin/openbind-hippo/a71ev2a/cycle_01/bulkdock/openbind_a71ev2a_c1_scaffolds.sdf']

>  <fragmenstein_runtime>  (647) 
1.509565

$$$$
C11236-P200
     RDKit          3D

 22 23  0  0  0  0  0  0  0  0999 V2000
    3.0783   12.4737   17.7531 C   0  0  0  0  0  0  0  0  0  0  0  0
    2.2648   13.5983   18.3675 C   0  0  0  0  0  0  0  0  0  0  0  0
    2.6126   13.7932   19.7894 C   0  0  0  0  0  0  0  0  0  0  0  0
    3.3363   14.7255   20.3893 N   0  0  0  0  0  0  0  0  0  0  0  0
    3.5369   14.2034   21.6616 C   0  0  0  0  0  0  0  0  0  0  0  0
    4.4287   14.7949   22.7089 C   0  0  0  0  0  0  0  0  0  0  0  0
    5.6249   15.3630   22.1282 N   0  0  0  0  0  0  0  0  0  0  0  0
    7.0752   14.5880   22.3599 S   0  0  0  0  0  0  0  0  0  0  0  0
    6.7955   13.2315   21.9124 O   0  0  0  0  0  0  0  0  0  0  0  0
    7.9661   15.3325   21.4926 O   0  0  0  0  0  0  0  0  0  0  0  0
    7.1983   14.7740   23.8810 N   0  0  0  0  0  0  0  0  0  0  0  0
    8.5817   14.4149   24.4331 S   0  0  2  0  0  0  0  0  0  0  0  0
    8.5651   14.9674   26.1373 C   0  0  0  0  0  0  0  0  0  0  0  0
    9.8466   14.8239   23.8611 O   0  0  0  0  0  0  0  0  0  0  0  0
    8.8435   12.7058   24.6400 C   0  0  0  0  0  0  0  0  0  0  0  0
    9.5269   12.1366   23.4096 C   0  0  0  0  0  0  0  0  0  0  0  0
    9.8141   10.6741   23.5174 C   0  0  0  0  0  0  0  0  0  0  0  0
    8.7920    9.8702   24.2530 C   0  0  0  0  0  0  0  0  0  0  0  0
    7.9356   10.5490   25.3084 C   0  0  0  0  0  0  0  0  0  0  0  0
    7.5901   11.9751   25.0171 C   0  0  0  0  0  0  0  0  0  0  0  0
    2.7770   13.0630   21.7899 C   0  0  0  0  0  0  0  0  0  0  0  0
    2.1746   12.7980   20.6122 O   0  0  0  0  0  0  0  0  0  0  0  0
  1  2  1  0
  2  3  1  0
  3  4  2  0
  4  5  1  0
  5  6  1  0
  6  7  1  0
  7  8  1  0
  8  9  2  0
  8 10  2  0
  8 11  1  0
 11 12  2  0
 12 13  1  1
 12 14  2  0
 12 15  1  0
 15 16  1  0
 16 17  1  0
 17 18  1  0
 18 19  1  0
 19 20  1  0
  5 21  2  0
 21 22  1  0
 22  3  1  0
 20 15  1  0
M  END
>  <ref_pdb>  (648) 
A3623a

>  <subsites>  (648) 
1 - Active Site

>  <HIPPO Compound ID>  (648) 
4701

>  <energy_score>  (648) 
-68.330979

>  <fragmenstein_mode>  (648) 
expansion

>  <scratch_subdir>  (648) 
/opt/xchem-fragalysis-2/maxwin/BulkDock/SCRATCH/512201/C11236-P200

>  <smiles>  (648) 
CCc1nc(CNS(=O)(=O)N=[S@](C)(=O)C2CCCCC2)co1

>  <alias>  (648) 
C11236-P200

>  <ref_mols>  (648) 
A3623a,A4418a,A3694a

>  <inspiration_score>  (648) 
None

>  <tags>  (648) 
BulkDock Fragalysis export,fragmenstein_placed,openbind_a71ev2a_c1_knitwork_impure,openbind_a71ev2a_c1_scaffolds

>  <fragmenstein_outcome>  (648) 
acceptable

>  <fragmenstein_error>  (648) 


>  <distance_score>  (648) 
0.935989

>  <inchikey>  (648) 
FINIGGNJPQFVOX-UHFFFAOYSA-N

>  <name>  (648) 
C11236-P200

>  <HIPPO Pose ID>  (648) 
381820

>  <Energy>  (648) 
-233.669297

>  <exports>  (648) 
['/opt/xchem-fragalysis-2/maxwin/BulkDock/OUTPUTS/openbind_a71ev2a_c1_knitwork_impure_165VXJF.sdf', '/opt/xchem-fragalysis-2/maxwin/BulkDock/OUTPUTS/openbind_a71ev2a_c1_knitwork_impure_1B07QS4.sdf', '/opt/xchem-fragalysis-2/maxwin/BulkDock/OUTPUTS/openbind_a71ev2a_c1_knitwork_impure_1B07X5R.sdf', '/opt/xchem-fragalysis-2/maxwin/openbind-hippo/a71ev2a/openbind_a71ev2a_c1_scaffold_products.sdf', '/opt/xchem-fragalysis-2/maxwin/openbind-hippo/a71ev2a/cycle_01/bulkdock/openbind_a71ev2a_c1_scaffold_products.sdf', '/opt/xchem-fragalysis-2/maxwin/openbind-hippo/a71ev2a/cycle_01/bulkdock/openbind_a71ev2a_c1_scaffolds.sdf']

>  <fragmenstein_runtime>  (648) 
3.177225

$$$$
C15025-P224
     RDKit          3D

 12 12  0  0  0  0  0  0  0  0999 V2000
   11.2024   13.9850   22.7377 C   0  0  0  0  0  0  0  0  0  0  0  0
    9.7291   14.2649   22.5224 C   0  0  0  0  0  0  0  0  0  0  0  0
    8.8108   13.3230   23.2364 N   0  0  0  0  0  0  0  0  0  0  0  0
    8.9677   13.2812   24.9182 S   0  0  0  0  0  0  0  0  0  0  0  0
    8.4071   14.5246   25.3992 O   0  0  0  0  0  0  0  0  0  0  0  0
   10.3000   12.8620   25.2825 O   0  0  0  0  0  0  0  0  0  0  0  0
    7.8815   11.9905   25.4001 C   0  0  0  0  0  0  0  0  0  0  0  0
    6.7970   12.2522   26.2360 C   0  0  0  0  0  0  0  0  0  0  0  0
    6.0088   11.1940   26.6706 C   0  0  0  0  0  0  0  0  0  0  0  0
    6.3400    9.9184   26.2510 C   0  0  0  0  0  0  0  0  0  0  0  0
    7.3919    9.6398   25.4469 N   0  0  0  0  0  0  0  0  0  0  0  0
    8.1503   10.6866   25.0320 C   0  0  0  0  0  0  0  0  0  0  0  0
  1  2  1  0
  2  3  1  0
  3  4  1  0
  4  5  2  0
  4  6  2  0
  4  7  1  0
  7  8  2  0
  8  9  1  0
  9 10  2  0
 10 11  1  0
 11 12  2  0
 12  7  1  0
M  END
>  <ref_pdb>  (649) 
A3849a

>  <subsites>  (649) 
1 - Active Site

>  <HIPPO Compound ID>  (649) 
8168

>  <energy_score>  (649) 
-16.757589

>  <fragmenstein_mode>  (649) 
expansion

>  <scratch_subdir>  (649) 
/opt/xchem-fragalysis-2/maxwin/BulkDock/SCRATCH/512201/C15025-P224

>  <smiles>  (649) 
CCNS(=O)(=O)c1cccnc1

>  <alias>  (649) 
C15025-P224

>  <ref_mols>  (649) 
A3849a,A0719a

>  <inspiration_score>  (649) 
None

>  <tags>  (649) 
BulkDock Fragalysis export,fragmenstein_placed,openbind_a71ev2a_c1_knitwork_impure,openbind_a71ev2a_c1_scaffolds

>  <fragmenstein_outcome>  (649) 
acceptable

>  <fragmenstein_error>  (649) 


>  <distance_score>  (649) 
0.773138

>  <inchikey>  (649) 
CTCJLPKYTZKXTA-UHFFFAOYSA-N

>  <name>  (649) 
C15025-P224

>  <HIPPO Pose ID>  (649) 
381929

>  <Energy>  (649) 
-48.51126

>  <exports>  (649) 
['/opt/xchem-fragalysis-2/maxwin/BulkDock/OUTPUTS/openbind_a71ev2a_c1_knitwork_impure_165VXJF.sdf', '/opt/xchem-fragalysis-2/maxwin/BulkDock/OUTPUTS/openbind_a71ev2a_c1_knitwork_impure_1B07QS4.sdf', '/opt/xchem-fragalysis-2/maxwin/BulkDock/OUTPUTS/openbind_a71ev2a_c1_knitwork_impure_1B07X5R.sdf', '/opt/xchem-fragalysis-2/maxwin/openbind-hippo/a71ev2a/openbind_a71ev2a_c1_scaffold_products.sdf', '/opt/xchem-fragalysis-2/maxwin/openbind-hippo/a71ev2a/cycle_01/bulkdock/openbind_a71ev2a_c1_scaffold_products.sdf', '/opt/xchem-fragalysis-2/maxwin/openbind-hippo/a71ev2a/cycle_01/bulkdock/openbind_a71ev2a_c1_scaffolds.sdf']

>  <fragmenstein_runtime>  (649) 
1.255947

$$$$
C15027-P224
     RDKit          3D

 13 13  0  0  0  0  0  0  0  0999 V2000
   11.9872   15.0106   23.5801 C   0  0  0  0  0  0  0  0  0  0  0  0
   11.1845   14.1716   22.9140 C   0  0  0  0  0  0  0  0  0  0  0  0
    9.7671   14.5062   22.5620 C   0  0  0  0  0  0  0  0  0  0  0  0
    8.7500   13.5524   23.1657 C   0  0  0  0  0  0  0  0  0  0  0  0
    7.8405   13.0838   22.4694 O   0  0  0  0  0  0  0  0  0  0  0  0
    8.7895   13.3233   24.6829 C   0  0  1  0  0  0  0  0  0  0  0  0
    8.1010   14.4168   25.2913 O   0  0  0  0  0  0  0  0  0  0  0  0
    8.1769   11.9978   25.0934 C   0  0  0  0  0  0  0  0  0  0  0  0
    7.1014   11.9073   25.9856 C   0  0  0  0  0  0  0  0  0  0  0  0
    6.5703   10.6606   26.2718 C   0  0  0  0  0  0  0  0  0  0  0  0
    7.0491    9.5096   25.7590 N   0  0  0  0  0  0  0  0  0  0  0  0
    8.1007    9.6123   24.9171 C   0  0  0  0  0  0  0  0  0  0  0  0
    8.6876   10.8103   24.5594 C   0  0  0  0  0  0  0  0  0  0  0  0
  1  2  2  0
  2  3  1  0
  3  4  1  0
  4  5  2  0
  4  6  1  0
  6  7  1  1
  6  8  1  0
  8  9  2  0
  9 10  1  0
 10 11  2  0
 11 12  1  0
 12 13  2  0
 13  8  1  0
M  END
>  <ref_pdb>  (650) 
A3849a

>  <subsites>  (650) 
1 - Active Site

>  <HIPPO Compound ID>  (650) 
1417

>  <energy_score>  (650) 
-9.57329

>  <fragmenstein_mode>  (650) 
expansion

>  <scratch_subdir>  (650) 
/opt/xchem-fragalysis-2/maxwin/BulkDock/SCRATCH/512201/C15027-P224

>  <smiles>  (650) 
C=CCC(=O)[C@@H](O)c1ccncc1

>  <alias>  (650) 
C15027-P224

>  <ref_mols>  (650) 
A3849a,A0719a

>  <inspiration_score>  (650) 
None

>  <tags>  (650) 
BulkDock Fragalysis export,fragmenstein_placed,openbind_a71ev2a_c1_knitwork_impure,openbind_a71ev2a_c1_scaffolds

>  <fragmenstein_outcome>  (650) 
acceptable

>  <fragmenstein_error>  (650) 


>  <distance_score>  (650) 
0.913925

>  <inchikey>  (650) 
DCZHFEWOJXEGST-UHFFFAOYSA-N

>  <name>  (650) 
C15027-P224

>  <HIPPO Pose ID>  (650) 
381931

>  <Energy>  (650) 
74.774983

>  <exports>  (650) 
['/opt/xchem-fragalysis-2/maxwin/BulkDock/OUTPUTS/openbind_a71ev2a_c1_knitwork_impure_165VXJF.sdf', '/opt/xchem-fragalysis-2/maxwin/BulkDock/OUTPUTS/openbind_a71ev2a_c1_knitwork_impure_1B07QS4.sdf', '/opt/xchem-fragalysis-2/maxwin/BulkDock/OUTPUTS/openbind_a71ev2a_c1_knitwork_impure_1B07X5R.sdf', '/opt/xchem-fragalysis-2/maxwin/openbind-hippo/a71ev2a/openbind_a71ev2a_c1_scaffold_products.sdf', '/opt/xchem-fragalysis-2/maxwin/openbind-hippo/a71ev2a/cycle_01/bulkdock/openbind_a71ev2a_c1_scaffold_products.sdf', '/opt/xchem-fragalysis-2/maxwin/openbind-hippo/a71ev2a/cycle_01/bulkdock/openbind_a71ev2a_c1_scaffolds.sdf']

>  <fragmenstein_runtime>  (650) 
1.82806

$$$$
C15036-P224
     RDKit          3D

 14 14  0  0  0  0  0  0  0  0999 V2000
   12.3422   16.1254   21.5879 N   0  0  0  0  0  0  0  0  0  0  0  0
   11.8464   15.2594   22.1757 C   0  0  0  0  0  0  0  0  0  0  0  0
   11.1403   14.2086   22.9097 C   0  0  0  0  0  0  0  0  0  0  0  0
    9.6468   14.3092   22.6059 C   0  0  0  0  0  0  0  0  0  0  0  0
    8.7732   13.2799   23.2718 N   0  0  0  0  0  0  0  0  0  0  0  0
    8.9299   13.1928   24.9518 S   0  0  0  0  0  0  0  0  0  0  0  0
   10.2627   12.7405   25.2697 O   0  0  0  0  0  0  0  0  0  0  0  0
    8.4163   14.4451   25.4587 O   0  0  0  0  0  0  0  0  0  0  0  0
    7.8244   11.9231   25.4247 C   0  0  0  0  0  0  0  0  0  0  0  0
    6.7422   12.2017   26.2575 C   0  0  0  0  0  0  0  0  0  0  0  0
    5.9428   11.1545   26.6968 C   0  0  0  0  0  0  0  0  0  0  0  0
    6.2607    9.8738   26.2833 C   0  0  0  0  0  0  0  0  0  0  0  0
    7.3107    9.5799   25.4819 N   0  0  0  0  0  0  0  0  0  0  0  0
    8.0825   10.6147   25.0659 C   0  0  0  0  0  0  0  0  0  0  0  0
  1  2  3  0
  2  3  1  0
  3  4  1  0
  4  5  1  0
  5  6  1  0
  6  7  2  0
  6  8  2  0
  6  9  1  0
  9 10  2  0
 10 11  1  0
 11 12  2  0
 12 13  1  0
 13 14  2  0
 14  9  1  0
M  END
>  <ref_pdb>  (651) 
A3849a

>  <subsites>  (651) 
1 - Active Site

>  <HIPPO Compound ID>  (651) 
5378

>  <energy_score>  (651) 
-26.338933

>  <fragmenstein_mode>  (651) 
expansion

>  <scratch_subdir>  (651) 
/opt/xchem-fragalysis-2/maxwin/BulkDock/SCRATCH/512201/C15036-P224

>  <smiles>  (651) 
N#CCCNS(=O)(=O)c1cccnc1

>  <alias>  (651) 
C15036-P224

>  <ref_mols>  (651) 
A3849a,A0719a

>  <inspiration_score>  (651) 
None

>  <tags>  (651) 
BulkDock Fragalysis export,fragmenstein_placed,openbind_a71ev2a_c1_knitwork_impure,openbind_a71ev2a_c1_scaffolds

>  <fragmenstein_outcome>  (651) 
acceptable

>  <fragmenstein_error>  (651) 


>  <distance_score>  (651) 
0.733468

>  <inchikey>  (651) 
BPVACFSEVJXOJC-UHFFFAOYSA-N

>  <name>  (651) 
C15036-P224

>  <HIPPO Pose ID>  (651) 
381939

>  <Energy>  (651) 
-46.322994

>  <exports>  (651) 
['/opt/xchem-fragalysis-2/maxwin/BulkDock/OUTPUTS/openbind_a71ev2a_c1_knitwork_impure_165VXJF.sdf', '/opt/xchem-fragalysis-2/maxwin/BulkDock/OUTPUTS/openbind_a71ev2a_c1_knitwork_impure_1B07QS4.sdf', '/opt/xchem-fragalysis-2/maxwin/BulkDock/OUTPUTS/openbind_a71ev2a_c1_knitwork_impure_1B07X5R.sdf', '/opt/xchem-fragalysis-2/maxwin/openbind-hippo/a71ev2a/openbind_a71ev2a_c1_scaffold_products.sdf', '/opt/xchem-fragalysis-2/maxwin/openbind-hippo/a71ev2a/cycle_01/bulkdock/openbind_a71ev2a_c1_scaffold_products.sdf', '/opt/xchem-fragalysis-2/maxwin/openbind-hippo/a71ev2a/cycle_01/bulkdock/openbind_a71ev2a_c1_scaffolds.sdf']

>  <fragmenstein_runtime>  (651) 
3.252673

$$$$
C15045-P224
     RDKit          3D

 15 15  0  0  0  0  0  0  0  0999 V2000
   10.9877   16.1455   20.3985 C   0  0  0  0  0  0  0  0  0  0  0  0
   11.8686   15.4194   21.0977 C   0  0  0  0  0  0  0  0  0  0  0  0
   11.9323   15.4062   22.5923 C   0  0  0  0  0  0  0  0  0  0  0  0
   11.0629   14.2932   23.1784 C   0  0  0  0  0  0  0  0  0  0  0  0
    9.5880   14.5405   22.8676 C   0  0  0  0  0  0  0  0  0  0  0  0
    8.6495   13.4888   23.3888 C   0  0  0  0  0  0  0  0  0  0  0  0
    7.8353   12.9521   22.6295 O   0  0  0  0  0  0  0  0  0  0  0  0
    8.6453   13.2292   24.8956 C   0  0  1  0  0  0  0  0  0  0  0  0
    7.9363   14.3005   25.5125 O   0  0  0  0  0  0  0  0  0  0  0  0
    8.0482   11.8886   25.2507 C   0  0  0  0  0  0  0  0  0  0  0  0
    6.9538   11.7527   26.1108 C   0  0  0  0  0  0  0  0  0  0  0  0
    6.4364   10.4894   26.3305 C   0  0  0  0  0  0  0  0  0  0  0  0
    6.9459    9.3701   25.7782 N   0  0  0  0  0  0  0  0  0  0  0  0
    8.0209    9.5195   24.9745 C   0  0  0  0  0  0  0  0  0  0  0  0
    8.5973   10.7349   24.6842 C   0  0  0  0  0  0  0  0  0  0  0  0
  1  2  2  0
  2  3  1  0
  3  4  1  0
  4  5  1  0
  5  6  1  0
  6  7  2  0
  6  8  1  0
  8  9  1  1
  8 10  1  0
 10 11  2  0
 11 12  1  0
 12 13  2  0
 13 14  1  0
 14 15  2  0
 15 10  1  0
M  END
>  <ref_pdb>  (652) 
A3849a

>  <subsites>  (652) 
1 - Active Site

>  <HIPPO Compound ID>  (652) 
11486

>  <energy_score>  (652) 
-15.654425

>  <fragmenstein_mode>  (652) 
expansion

>  <scratch_subdir>  (652) 
/opt/xchem-fragalysis-2/maxwin/BulkDock/SCRATCH/512201/C15045-P224

>  <smiles>  (652) 
C=CCCCC(=O)[C@@H](O)c1ccncc1

>  <alias>  (652) 
C15045-P224

>  <ref_mols>  (652) 
A3849a,A0719a

>  <inspiration_score>  (652) 
None

>  <tags>  (652) 
BulkDock Fragalysis export,fragmenstein_placed,openbind_a71ev2a_c1_knitwork_impure,openbind_a71ev2a_c1_scaffolds

>  <fragmenstein_outcome>  (652) 
acceptable

>  <fragmenstein_error>  (652) 


>  <distance_score>  (652) 
0.844087

>  <inchikey>  (652) 
FXEFZOMVZBBFDP-UHFFFAOYSA-N

>  <name>  (652) 
C15045-P224

>  <HIPPO Pose ID>  (652) 
381945

>  <Energy>  (652) 
64.218297

>  <exports>  (652) 
['/opt/xchem-fragalysis-2/maxwin/BulkDock/OUTPUTS/openbind_a71ev2a_c1_knitwork_impure_165VXJF.sdf', '/opt/xchem-fragalysis-2/maxwin/BulkDock/OUTPUTS/openbind_a71ev2a_c1_knitwork_impure_1B07QS4.sdf', '/opt/xchem-fragalysis-2/maxwin/BulkDock/OUTPUTS/openbind_a71ev2a_c1_knitwork_impure_1B07X5R.sdf', '/opt/xchem-fragalysis-2/maxwin/openbind-hippo/a71ev2a/openbind_a71ev2a_c1_scaffold_products.sdf', '/opt/xchem-fragalysis-2/maxwin/openbind-hippo/a71ev2a/cycle_01/bulkdock/openbind_a71ev2a_c1_scaffold_products.sdf', '/opt/xchem-fragalysis-2/maxwin/openbind-hippo/a71ev2a/cycle_01/bulkdock/openbind_a71ev2a_c1_scaffolds.sdf']

>  <fragmenstein_runtime>  (652) 
2.571006

$$$$
C15048-P224
     RDKit          3D

 16 16  0  0  0  0  0  0  0  0999 V2000
    7.9648   14.3637   28.0727 C   0  0  0  0  0  0  0  0  0  0  0  0
    7.2131   14.6578   26.7908 C   0  0  0  0  0  0  0  0  0  0  0  0
    7.6791   13.8930   25.5152 C   0  0  2  0  0  0  0  0  0  0  0  0
    6.8494   14.4748   24.4342 N   0  0  0  0  0  0  0  0  0  0  0  0
    7.4224   14.4434   22.8604 S   0  0  0  0  0  0  0  0  0  0  0  0
    8.5602   15.3267   22.8233 O   0  0  0  0  0  0  0  0  0  0  0  0
    7.4821   13.0944   22.3644 O   0  0  0  0  0  0  0  0  0  0  0  0
    6.1118   15.2129   22.1509 N   0  0  0  0  0  0  0  0  0  0  0  0
    4.8942   14.4139   21.9411 C   0  0  0  0  0  0  0  0  0  0  0  0
    5.8323   16.5504   22.6730 C   0  0  0  0  0  0  0  0  0  0  0  0
    7.5514   12.3810   25.5912 C   0  0  0  0  0  0  0  0  0  0  0  0
    6.5166   11.7241   26.2690 C   0  0  0  0  0  0  0  0  0  0  0  0
    6.4588   10.3370   26.2359 C   0  0  0  0  0  0  0  0  0  0  0  0
    7.3400    9.5647   25.5715 N   0  0  0  0  0  0  0  0  0  0  0  0
    8.3130   10.2069   24.8913 C   0  0  0  0  0  0  0  0  0  0  0  0
    8.4653   11.5850   24.8867 C   0  0  0  0  0  0  0  0  0  0  0  0
  1  2  1  0
  3  2  1  1
  3  4  1  0
  4  5  1  0
  5  6  2  0
  5  7  2  0
  5  8  1  0
  8  9  1  0
  8 10  1  0
  3 11  1  0
 11 12  2  0
 12 13  1  0
 13 14  2  0
 14 15  1  0
 15 16  2  0
 16 11  1  0
M  END
>  <ref_pdb>  (653) 
A3849a

>  <subsites>  (653) 
1 - Active Site

>  <HIPPO Compound ID>  (653) 
26238

>  <energy_score>  (653) 
-30.486078

>  <fragmenstein_mode>  (653) 
expansion

>  <scratch_subdir>  (653) 
/opt/xchem-fragalysis-2/maxwin/BulkDock/SCRATCH/512201/C15048-P224

>  <smiles>  (653) 
CC[C@H](NS(=O)(=O)N(C)C)c1ccncc1

>  <alias>  (653) 
C15048-P224

>  <ref_mols>  (653) 
A3849a,A0719a

>  <inspiration_score>  (653) 
None

>  <tags>  (653) 
BulkDock Fragalysis export,fragmenstein_placed,openbind_a71ev2a_c1_knitwork_impure,openbind_a71ev2a_c1_scaffolds

>  <fragmenstein_outcome>  (653) 
acceptable

>  <fragmenstein_error>  (653) 


>  <distance_score>  (653) 
0.864548

>  <inchikey>  (653) 
YKUFSMANTRFFSS-UHFFFAOYSA-N

>  <name>  (653) 
C15048-P224

>  <HIPPO Pose ID>  (653) 
381947

>  <Energy>  (653) 
-168.849722

>  <exports>  (653) 
['/opt/xchem-fragalysis-2/maxwin/BulkDock/OUTPUTS/openbind_a71ev2a_c1_knitwork_impure_165VXJF.sdf', '/opt/xchem-fragalysis-2/maxwin/BulkDock/OUTPUTS/openbind_a71ev2a_c1_knitwork_impure_1B07QS4.sdf', '/opt/xchem-fragalysis-2/maxwin/BulkDock/OUTPUTS/openbind_a71ev2a_c1_knitwork_impure_1B07X5R.sdf', '/opt/xchem-fragalysis-2/maxwin/openbind-hippo/a71ev2a/openbind_a71ev2a_c1_scaffold_products.sdf', '/opt/xchem-fragalysis-2/maxwin/openbind-hippo/a71ev2a/cycle_01/bulkdock/openbind_a71ev2a_c1_scaffold_products.sdf', '/opt/xchem-fragalysis-2/maxwin/openbind-hippo/a71ev2a/cycle_01/bulkdock/openbind_a71ev2a_c1_scaffolds.sdf']

>  <fragmenstein_runtime>  (653) 
9.290272

$$$$
C15051-P224
     RDKit          3D

 14 14  0  0  0  0  0  0  0  0999 V2000
    8.3086   14.7475   25.1309 C   0  0  0  0  0  0  0  0  0  0  0  0
    8.9036   13.3838   24.7531 C   0  0  2  0  0  0  0  0  0  0  0  0
   10.1861   13.3071   25.3866 O   0  0  0  0  0  0  0  0  0  0  0  0
    8.9162   13.3479   23.2080 C   0  0  0  0  0  0  0  0  0  0  0  0
    7.8881   13.1364   22.5493 O   0  0  0  0  0  0  0  0  0  0  0  0
   10.2418   13.6398   22.5430 C   0  0  0  0  0  0  0  0  0  0  0  0
   11.0827   14.3536   23.3561 F   0  0  0  0  0  0  0  0  0  0  0  0
   10.0860   14.4045   21.4278 F   0  0  0  0  0  0  0  0  0  0  0  0
    8.1105   12.1808   25.2549 C   0  0  0  0  0  0  0  0  0  0  0  0
    7.0073   12.3002   26.1023 C   0  0  0  0  0  0  0  0  0  0  0  0
    6.3153   11.1581   26.4894 C   0  0  0  0  0  0  0  0  0  0  0  0
    6.7336    9.9239   26.0220 C   0  0  0  0  0  0  0  0  0  0  0  0
    7.8474    9.8756   25.2025 C   0  0  0  0  0  0  0  0  0  0  0  0
    8.5462   10.9651   24.8282 N   0  0  0  0  0  0  0  0  0  0  0  0
  2  1  1  6
  2  3  1  0
  2  4  1  0
  4  5  2  0
  4  6  1  0
  6  7  1  0
  6  8  1  0
  2  9  1  0
  9 10  2  0
 10 11  1  0
 11 12  2  0
 12 13  1  0
 13 14  2  0
 14  9  1  0
M  END
>  <ref_pdb>  (654) 
A3849a

>  <subsites>  (654) 
1 - Active Site

>  <HIPPO Compound ID>  (654) 
19998

>  <energy_score>  (654) 
-16.722681

>  <fragmenstein_mode>  (654) 
expansion

>  <scratch_subdir>  (654) 
/opt/xchem-fragalysis-2/maxwin/BulkDock/SCRATCH/512201/C15051-P224

>  <smiles>  (654) 
C[C@](O)(C(=O)C(F)F)c1ccccn1

>  <alias>  (654) 
C15051-P224

>  <ref_mols>  (654) 
A3849a,A0719a

>  <inspiration_score>  (654) 
None

>  <tags>  (654) 
BulkDock Fragalysis export,fragmenstein_placed,openbind_a71ev2a_c1_knitwork_impure,openbind_a71ev2a_c1_scaffolds

>  <fragmenstein_outcome>  (654) 
acceptable

>  <fragmenstein_error>  (654) 


>  <distance_score>  (654) 
0.845728

>  <inchikey>  (654) 
HKXVWCTZHQLBNW-UHFFFAOYSA-N

>  <name>  (654) 
C15051-P224

>  <HIPPO Pose ID>  (654) 
381950

>  <Energy>  (654) 
85.917993

>  <exports>  (654) 
['/opt/xchem-fragalysis-2/maxwin/BulkDock/OUTPUTS/openbind_a71ev2a_c1_knitwork_impure_165VXJF.sdf', '/opt/xchem-fragalysis-2/maxwin/BulkDock/OUTPUTS/openbind_a71ev2a_c1_knitwork_impure_1B07QS4.sdf', '/opt/xchem-fragalysis-2/maxwin/BulkDock/OUTPUTS/openbind_a71ev2a_c1_knitwork_impure_1B07X5R.sdf', '/opt/xchem-fragalysis-2/maxwin/openbind-hippo/a71ev2a/openbind_a71ev2a_c1_scaffold_products.sdf', '/opt/xchem-fragalysis-2/maxwin/openbind-hippo/a71ev2a/cycle_01/bulkdock/openbind_a71ev2a_c1_scaffold_products.sdf', '/opt/xchem-fragalysis-2/maxwin/openbind-hippo/a71ev2a/cycle_01/bulkdock/openbind_a71ev2a_c1_scaffolds.sdf']

>  <fragmenstein_runtime>  (654) 
0.75507

$$$$
C15056-P224
     RDKit          3D

 14 14  0  0  0  0  0  0  0  0999 V2000
   12.6796   15.8345   21.7801 C   0  0  0  0  0  0  0  0  0  0  0  0
   11.5296   15.2324   22.4298 C   0  0  0  0  0  0  0  0  0  0  0  0
   10.4414   14.8866   22.7883 C   0  0  0  0  0  0  0  0  0  0  0  0
    8.9986   14.7909   22.9461 C   0  0  0  0  0  0  0  0  0  0  0  0
    8.4925   13.4639   23.4288 C   0  0  0  0  0  0  0  0  0  0  0  0
    7.7882   12.7752   22.6875 O   0  0  0  0  0  0  0  0  0  0  0  0
    8.8375   13.0534   24.8643 C   0  0  1  0  0  0  0  0  0  0  0  0
    8.7671   14.1907   25.7274 O   0  0  0  0  0  0  0  0  0  0  0  0
    7.9504   11.9530   25.4105 C   0  0  0  0  0  0  0  0  0  0  0  0
    6.8990   12.1977   26.3062 C   0  0  0  0  0  0  0  0  0  0  0  0
    6.0948   11.1556   26.7534 C   0  0  0  0  0  0  0  0  0  0  0  0
    6.3671    9.8837   26.2977 C   0  0  0  0  0  0  0  0  0  0  0  0
    7.3774    9.5939   25.4532 N   0  0  0  0  0  0  0  0  0  0  0  0
    8.1316   10.6304   25.0118 C   0  0  0  0  0  0  0  0  0  0  0  0
  1  2  1  0
  2  3  3  0
  3  4  1  0
  4  5  1  0
  5  6  2  0
  5  7  1  0
  7  8  1  1
  7  9  1  0
  9 10  2  0
 10 11  1  0
 11 12  2  0
 12 13  1  0
 13 14  2  0
 14  9  1  0
M  END
>  <ref_pdb>  (655) 
A3849a

>  <subsites>  (655) 
1 - Active Site

>  <HIPPO Compound ID>  (655) 
22516

>  <energy_score>  (655) 
-14.580057

>  <fragmenstein_mode>  (655) 
expansion

>  <scratch_subdir>  (655) 
/opt/xchem-fragalysis-2/maxwin/BulkDock/SCRATCH/512201/C15056-P224

>  <smiles>  (655) 
CC#CCC(=O)[C@@H](O)c1cccnc1

>  <alias>  (655) 
C15056-P224

>  <ref_mols>  (655) 
A3849a,A0719a

>  <inspiration_score>  (655) 
None

>  <tags>  (655) 
BulkDock Fragalysis export,fragmenstein_placed,openbind_a71ev2a_c1_knitwork_impure,openbind_a71ev2a_c1_scaffolds

>  <fragmenstein_outcome>  (655) 
acceptable

>  <fragmenstein_error>  (655) 


>  <distance_score>  (655) 
0.973295

>  <inchikey>  (655) 
WUAFTAWKKQKQSG-UHFFFAOYSA-N

>  <name>  (655) 
C15056-P224

>  <HIPPO Pose ID>  (655) 
381954

>  <Energy>  (655) 
68.503655

>  <exports>  (655) 
['/opt/xchem-fragalysis-2/maxwin/BulkDock/OUTPUTS/openbind_a71ev2a_c1_knitwork_impure_165VXJF.sdf', '/opt/xchem-fragalysis-2/maxwin/BulkDock/OUTPUTS/openbind_a71ev2a_c1_knitwork_impure_1B07QS4.sdf', '/opt/xchem-fragalysis-2/maxwin/BulkDock/OUTPUTS/openbind_a71ev2a_c1_knitwork_impure_1B07X5R.sdf', '/opt/xchem-fragalysis-2/maxwin/openbind-hippo/a71ev2a/openbind_a71ev2a_c1_scaffold_products.sdf', '/opt/xchem-fragalysis-2/maxwin/openbind-hippo/a71ev2a/cycle_01/bulkdock/openbind_a71ev2a_c1_scaffold_products.sdf', '/opt/xchem-fragalysis-2/maxwin/openbind-hippo/a71ev2a/cycle_01/bulkdock/openbind_a71ev2a_c1_scaffolds.sdf']

>  <fragmenstein_runtime>  (655) 
1.164075

$$$$
C15065-P224
     RDKit          3D

 13 13  0  0  0  0  0  0  0  0999 V2000
   12.0650   15.1345   23.1330 C   0  0  0  0  0  0  0  0  0  0  0  0
   11.2107   14.0573   23.5072 O   0  0  0  0  0  0  0  0  0  0  0  0
    9.9238   14.2104   22.9022 C   0  0  0  0  0  0  0  0  0  0  0  0
    9.0051   13.0571   23.3080 C   0  0  2  0  0  0  0  0  0  0  0  0
    7.8031   13.0806   22.5218 O   0  0  0  0  0  0  0  0  0  0  0  0
    8.5628   13.1418   24.7656 C   0  0  0  0  0  0  0  0  0  0  0  0
    8.6553   14.1686   25.4378 O   0  0  0  0  0  0  0  0  0  0  0  0
    7.8375   11.9892   25.3550 C   0  0  0  0  0  0  0  0  0  0  0  0
    6.8681   12.2462   26.3299 C   0  0  0  0  0  0  0  0  0  0  0  0
    6.1113   11.2018   26.8483 C   0  0  0  0  0  0  0  0  0  0  0  0
    6.3635    9.9249   26.3861 C   0  0  0  0  0  0  0  0  0  0  0  0
    7.3201    9.6316   25.4778 N   0  0  0  0  0  0  0  0  0  0  0  0
    8.0319   10.6716   24.9693 C   0  0  0  0  0  0  0  0  0  0  0  0
  1  2  1  0
  2  3  1  0
  3  4  1  0
  4  5  1  6
  4  6  1  0
  6  7  2  0
  6  8  1  0
  8  9  2  0
  9 10  1  0
 10 11  2  0
 11 12  1  0
 12 13  2  0
 13  8  1  0
M  END
>  <ref_pdb>  (656) 
A3849a

>  <subsites>  (656) 
1 - Active Site

>  <HIPPO Compound ID>  (656) 
12016

>  <energy_score>  (656) 
-23.326594

>  <fragmenstein_mode>  (656) 
expansion

>  <scratch_subdir>  (656) 
/opt/xchem-fragalysis-2/maxwin/BulkDock/SCRATCH/512201/C15065-P224

>  <smiles>  (656) 
COC[C@H](O)C(=O)c1cccnc1

>  <alias>  (656) 
C15065-P224

>  <ref_mols>  (656) 
A3849a,A0719a

>  <inspiration_score>  (656) 
None

>  <tags>  (656) 
BulkDock Fragalysis export,fragmenstein_placed,openbind_a71ev2a_c1_knitwork_impure,openbind_a71ev2a_c1_scaffolds

>  <fragmenstein_outcome>  (656) 
acceptable

>  <fragmenstein_error>  (656) 


>  <distance_score>  (656) 
0.74469

>  <inchikey>  (656) 
XPWBZSZXWGFDON-UHFFFAOYSA-N

>  <name>  (656) 
C15065-P224

>  <HIPPO Pose ID>  (656) 
381962

>  <Energy>  (656) 
78.937267

>  <exports>  (656) 
['/opt/xchem-fragalysis-2/maxwin/BulkDock/OUTPUTS/openbind_a71ev2a_c1_knitwork_impure_165VXJF.sdf', '/opt/xchem-fragalysis-2/maxwin/BulkDock/OUTPUTS/openbind_a71ev2a_c1_knitwork_impure_1B07QS4.sdf', '/opt/xchem-fragalysis-2/maxwin/BulkDock/OUTPUTS/openbind_a71ev2a_c1_knitwork_impure_1B07X5R.sdf', '/opt/xchem-fragalysis-2/maxwin/openbind-hippo/a71ev2a/openbind_a71ev2a_c1_scaffold_products.sdf', '/opt/xchem-fragalysis-2/maxwin/openbind-hippo/a71ev2a/cycle_01/bulkdock/openbind_a71ev2a_c1_scaffold_products.sdf', '/opt/xchem-fragalysis-2/maxwin/openbind-hippo/a71ev2a/cycle_01/bulkdock/openbind_a71ev2a_c1_scaffolds.sdf']

>  <fragmenstein_runtime>  (656) 
0.983082

$$$$
C15066-P224
     RDKit          3D

 15 15  0  0  0  0  0  0  0  0999 V2000
   12.3270   15.8293   21.7570 C   0  0  0  0  0  0  0  0  0  0  0  0
   12.0902   15.2136   23.1265 C   0  0  0  0  0  0  0  0  0  0  0  0
   11.1275   14.0233   23.1326 C   0  0  0  0  0  0  0  0  0  0  0  0
    9.6554   14.4091   22.9385 C   0  0  1  0  0  0  0  0  0  0  0  0
    9.3128   14.7116   21.4781 C   0  0  0  0  0  0  0  0  0  0  0  0
    8.7072   13.3277   23.4829 C   0  0  0  0  0  0  0  0  0  0  0  0
    7.9639   12.6938   22.7314 O   0  0  0  0  0  0  0  0  0  0  0  0
    8.6350   13.1569   25.0042 C   0  0  1  0  0  0  0  0  0  0  0  0
    8.1929   14.4026   25.5475 O   0  0  0  0  0  0  0  0  0  0  0  0
    7.7629   12.0215   25.4973 C   0  0  0  0  0  0  0  0  0  0  0  0
    6.7455   12.2151   26.4405 C   0  0  0  0  0  0  0  0  0  0  0  0
    5.9798   11.1419   26.8807 C   0  0  0  0  0  0  0  0  0  0  0  0
    6.2686    9.8883   26.3832 C   0  0  0  0  0  0  0  0  0  0  0  0
    7.2652    9.6429   25.5091 N   0  0  0  0  0  0  0  0  0  0  0  0
    7.9779   10.7108   25.0749 C   0  0  0  0  0  0  0  0  0  0  0  0
  1  2  1  0
  2  3  1  0
  3  4  1  0
  4  5  1  6
  4  6  1  0
  6  7  2  0
  6  8  1  0
  8  9  1  1
  8 10  1  0
 10 11  2  0
 11 12  1  0
 12 13  2  0
 13 14  1  0
 14 15  2  0
 15 10  1  0
M  END
>  <ref_pdb>  (657) 
A3849a

>  <subsites>  (657) 
1 - Active Site

>  <HIPPO Compound ID>  (657) 
94714

>  <energy_score>  (657) 
-24.441543

>  <fragmenstein_mode>  (657) 
expansion

>  <scratch_subdir>  (657) 
/opt/xchem-fragalysis-2/maxwin/BulkDock/SCRATCH/512201/C15066-P224

>  <smiles>  (657) 
CCC[C@@H](C)C(=O)[C@@H](O)c1cccnc1

>  <alias>  (657) 
C15066-P224

>  <ref_mols>  (657) 
A3849a,A0719a

>  <inspiration_score>  (657) 
None

>  <tags>  (657) 
BulkDock Fragalysis export,fragmenstein_placed,openbind_a71ev2a_c1_knitwork_impure,openbind_a71ev2a_c1_scaffolds

>  <fragmenstein_outcome>  (657) 
acceptable

>  <fragmenstein_error>  (657) 


>  <distance_score>  (657) 
0.733774

>  <inchikey>  (657) 
JSVZKTIWBIRABG-UHFFFAOYSA-N

>  <name>  (657) 
C15066-P224

>  <HIPPO Pose ID>  (657) 
381963

>  <Energy>  (657) 
58.925367

>  <exports>  (657) 
['/opt/xchem-fragalysis-2/maxwin/BulkDock/OUTPUTS/openbind_a71ev2a_c1_knitwork_impure_165VXJF.sdf', '/opt/xchem-fragalysis-2/maxwin/BulkDock/OUTPUTS/openbind_a71ev2a_c1_knitwork_impure_1B07QS4.sdf', '/opt/xchem-fragalysis-2/maxwin/BulkDock/OUTPUTS/openbind_a71ev2a_c1_knitwork_impure_1B07X5R.sdf', '/opt/xchem-fragalysis-2/maxwin/openbind-hippo/a71ev2a/openbind_a71ev2a_c1_scaffold_products.sdf', '/opt/xchem-fragalysis-2/maxwin/openbind-hippo/a71ev2a/cycle_01/bulkdock/openbind_a71ev2a_c1_scaffold_products.sdf', '/opt/xchem-fragalysis-2/maxwin/openbind-hippo/a71ev2a/cycle_01/bulkdock/openbind_a71ev2a_c1_scaffolds.sdf']

>  <fragmenstein_runtime>  (657) 
1.468566

$$$$
C15067-P224
     RDKit          3D

 15 15  0  0  0  0  0  0  0  0999 V2000
   10.9680   16.0510   20.7483 C   0  0  0  0  0  0  0  0  0  0  0  0
   12.0766   15.3486   21.5249 C   0  0  0  0  0  0  0  0  0  0  0  0
   11.8201   15.2201   23.0303 C   0  0  0  0  0  0  0  0  0  0  0  0
   11.0581   14.0667   23.4195 O   0  0  0  0  0  0  0  0  0  0  0  0
    9.7800   14.0540   22.8174 C   0  0  0  0  0  0  0  0  0  0  0  0
    8.7165   13.1806   23.4514 C   0  0  0  0  0  0  0  0  0  0  0  0
    7.8022   12.7360   22.7493 O   0  0  0  0  0  0  0  0  0  0  0  0
    8.6997   13.0673   24.9655 C   0  0  1  0  0  0  0  0  0  0  0  0
    8.2689   14.3413   25.4569 O   0  0  0  0  0  0  0  0  0  0  0  0
    7.8149   11.9609   25.5016 C   0  0  0  0  0  0  0  0  0  0  0  0
    6.8109   12.1949   26.4498 C   0  0  0  0  0  0  0  0  0  0  0  0
    6.0131   11.1500   26.9015 C   0  0  0  0  0  0  0  0  0  0  0  0
    6.2572    9.8844   26.4100 C   0  0  0  0  0  0  0  0  0  0  0  0
    7.2407    9.6006   25.5327 N   0  0  0  0  0  0  0  0  0  0  0  0
    7.9878   10.6407   25.0896 C   0  0  0  0  0  0  0  0  0  0  0  0
  1  2  1  0
  2  3  1  0
  3  4  1  0
  4  5  1  0
  5  6  1  0
  6  7  2  0
  6  8  1  0
  8  9  1  1
  8 10  1  0
 10 11  2  0
 11 12  1  0
 12 13  2  0
 13 14  1  0
 14 15  2  0
 15 10  1  0
M  END
>  <ref_pdb>  (658) 
A3849a

>  <subsites>  (658) 
1 - Active Site

>  <HIPPO Compound ID>  (658) 
84541

>  <energy_score>  (658) 
-18.285187

>  <fragmenstein_mode>  (658) 
expansion

>  <scratch_subdir>  (658) 
/opt/xchem-fragalysis-2/maxwin/BulkDock/SCRATCH/512201/C15067-P224

>  <smiles>  (658) 
CCCOCC(=O)[C@@H](O)c1cccnc1

>  <alias>  (658) 
C15067-P224

>  <ref_mols>  (658) 
A3849a,A0719a

>  <inspiration_score>  (658) 
None

>  <tags>  (658) 
BulkDock Fragalysis export,fragmenstein_placed,openbind_a71ev2a_c1_knitwork_impure,openbind_a71ev2a_c1_scaffolds

>  <fragmenstein_outcome>  (658) 
acceptable

>  <fragmenstein_error>  (658) 


>  <distance_score>  (658) 
0.80372

>  <inchikey>  (658) 
JYRQIYXJRADILA-UHFFFAOYSA-N

>  <name>  (658) 
C15067-P224

>  <HIPPO Pose ID>  (658) 
381964

>  <Energy>  (658) 
77.83425

>  <exports>  (658) 
['/opt/xchem-fragalysis-2/maxwin/BulkDock/OUTPUTS/openbind_a71ev2a_c1_knitwork_impure_165VXJF.sdf', '/opt/xchem-fragalysis-2/maxwin/BulkDock/OUTPUTS/openbind_a71ev2a_c1_knitwork_impure_1B07QS4.sdf', '/opt/xchem-fragalysis-2/maxwin/BulkDock/OUTPUTS/openbind_a71ev2a_c1_knitwork_impure_1B07X5R.sdf', '/opt/xchem-fragalysis-2/maxwin/openbind-hippo/a71ev2a/openbind_a71ev2a_c1_scaffold_products.sdf', '/opt/xchem-fragalysis-2/maxwin/openbind-hippo/a71ev2a/cycle_01/bulkdock/openbind_a71ev2a_c1_scaffold_products.sdf', '/opt/xchem-fragalysis-2/maxwin/openbind-hippo/a71ev2a/cycle_01/bulkdock/openbind_a71ev2a_c1_scaffolds.sdf']

>  <fragmenstein_runtime>  (658) 
1.329659

$$$$
C8137-P224
     RDKit          3D

 18 18  0  0  0  0  0  0  0  0999 V2000
   11.9039   14.0797   22.5675 C   0  0  0  0  0  0  0  0  0  0  0  0
   11.7393   15.4960   23.0796 C   0  0  0  0  0  0  0  0  0  0  0  0
   10.4932   15.6489   23.9414 C   0  0  0  0  0  0  0  0  0  0  0  0
    9.2062   16.0604   23.1835 C   0  0  0  0  0  0  0  0  0  0  0  0
    8.6513   14.9141   22.4561 N   0  0  0  0  0  0  0  0  0  0  0  0
    9.1199   14.9307   21.0472 C   0  0  0  0  0  0  0  0  0  0  0  0
    7.0066   14.5914   22.5738 S   0  0  0  0  0  0  0  0  0  0  0  0
    6.7689   13.3697   21.8383 O   0  0  0  0  0  0  0  0  0  0  0  0
    6.2315   15.7656   22.2674 O   0  0  0  0  0  0  0  0  0  0  0  0
    6.7104   14.2021   24.1608 N   0  0  0  0  0  0  0  0  0  0  0  0
    7.7147   13.9094   25.1861 C   0  0  1  0  0  0  0  0  0  0  0  0
    7.0827   14.2813   26.5360 C   0  0  0  0  0  0  0  0  0  0  0  0
    8.2758   12.4674   25.1816 C   0  0  0  0  0  0  0  0  0  0  0  0
    7.2377   11.4380   25.6119 C   0  0  0  0  0  0  0  0  0  0  0  0
    7.7066   10.0116   25.4379 C   0  0  0  0  0  0  0  0  0  0  0  0
    8.2884    9.7203   24.1520 N   0  0  0  0  0  0  0  0  0  0  0  0
    9.3692   10.5977   23.7647 C   0  0  0  0  0  0  0  0  0  0  0  0
    9.0123   12.0679   23.8997 C   0  0  0  0  0  0  0  0  0  0  0  0
  1  2  1  0
  2  3  1  0
  3  4  1  0
  4  5  1  0
  5  6  1  0
  5  7  1  0
  7  8  2  0
  7  9  2  0
  7 10  1  0
 10 11  1  0
 11 12  1  1
 11 13  1  0
 13 14  1  0
 14 15  1  0
 15 16  1  0
 16 17  1  0
 17 18  1  0
 18 13  1  0
M  END
>  <ref_pdb>  (659) 
A3849a

>  <subsites>  (659) 
1 - Active Site

>  <HIPPO Compound ID>  (659) 
82401

>  <energy_score>  (659) 
-57.868536

>  <fragmenstein_mode>  (659) 
expansion

>  <scratch_subdir>  (659) 
/opt/xchem-fragalysis-2/maxwin/BulkDock/SCRATCH/512201/C8137-P224

>  <smiles>  (659) 
CCCCN(C)S(=O)(=O)N[C@@H](C)C1CCNCC1

>  <alias>  (659) 
C8137-P224

>  <ref_mols>  (659) 
A3849a,A0719a

>  <inspiration_score>  (659) 
None

>  <tags>  (659) 
BulkDock Fragalysis export,fragmenstein_placed,openbind_a71ev2a_c1_knitwork_impure,openbind_a71ev2a_c1_scaffolds

>  <fragmenstein_outcome>  (659) 
acceptable

>  <fragmenstein_error>  (659) 


>  <distance_score>  (659) 
0.982909

>  <inchikey>  (659) 
CBVFQNPUAAYSLD-UHFFFAOYSA-N

>  <name>  (659) 
C8137-P224

>  <HIPPO Pose ID>  (659) 
381974

>  <Energy>  (659) 
-154.371522

>  <exports>  (659) 
['/opt/xchem-fragalysis-2/maxwin/BulkDock/OUTPUTS/openbind_a71ev2a_c1_knitwork_impure_165VXJF.sdf', '/opt/xchem-fragalysis-2/maxwin/BulkDock/OUTPUTS/openbind_a71ev2a_c1_knitwork_impure_1B07QS4.sdf', '/opt/xchem-fragalysis-2/maxwin/BulkDock/OUTPUTS/openbind_a71ev2a_c1_knitwork_impure_1B07X5R.sdf', '/opt/xchem-fragalysis-2/maxwin/openbind-hippo/a71ev2a/openbind_a71ev2a_c1_scaffold_products.sdf', '/opt/xchem-fragalysis-2/maxwin/openbind-hippo/a71ev2a/cycle_01/bulkdock/openbind_a71ev2a_c1_scaffold_products.sdf', '/opt/xchem-fragalysis-2/maxwin/openbind-hippo/a71ev2a/cycle_01/bulkdock/openbind_a71ev2a_c1_scaffolds.sdf']

>  <fragmenstein_runtime>  (659) 
55.852381

$$$$
C8141-P224
     RDKit          3D

 14 14  0  0  0  0  0  0  0  0999 V2000
   12.0863   15.4926   22.1913 C   0  0  0  0  0  0  0  0  0  0  0  0
   11.0351   14.8437   23.0259 C   0  0  0  0  0  0  0  0  0  0  0  0
   10.0120   14.1395   22.5190 C   0  0  0  0  0  0  0  0  0  0  0  0
    8.8956   13.5114   23.2962 C   0  0  0  0  0  0  0  0  0  0  0  0
    7.9068   13.1401   22.6585 O   0  0  0  0  0  0  0  0  0  0  0  0
    9.0114   13.3532   24.8410 C   0  0  2  0  0  0  0  0  0  0  0  0
    8.5914   14.6863   25.4721 C   0  0  0  0  0  0  0  0  0  0  0  0
   10.3731   13.1019   25.2384 O   0  0  0  0  0  0  0  0  0  0  0  0
    8.2065   12.1724   25.4395 C   0  0  0  0  0  0  0  0  0  0  0  0
    6.7460   12.4437   25.8026 C   0  0  0  0  0  0  0  0  0  0  0  0
    6.0787   11.2252   26.4491 C   0  0  0  0  0  0  0  0  0  0  0  0
    6.2777    9.9752   25.7226 N   0  0  0  0  0  0  0  0  0  0  0  0
    7.6752    9.7383   25.4095 C   0  0  0  0  0  0  0  0  0  0  0  0
    8.3604   10.8667   24.6683 C   0  0  0  0  0  0  0  0  0  0  0  0
  1  2  1  0
  2  3  2  3
  3  4  1  0
  4  5  2  0
  4  6  1  0
  6  7  1  1
  6  8  1  0
  6  9  1  0
  9 10  1  0
 10 11  1  0
 11 12  1  0
 12 13  1  0
 13 14  1  0
 14  9  1  0
M  END
>  <ref_pdb>  (660) 
A3849a

>  <subsites>  (660) 
1 - Active Site

>  <HIPPO Compound ID>  (660) 
7393

>  <energy_score>  (660) 
-24.373575

>  <fragmenstein_mode>  (660) 
expansion

>  <scratch_subdir>  (660) 
/opt/xchem-fragalysis-2/maxwin/BulkDock/SCRATCH/512201/C8141-P224

>  <smiles>  (660) 
CC=CC(=O)[C@](C)(O)C1CCNCC1

>  <alias>  (660) 
C8141-P224

>  <ref_mols>  (660) 
A3849a,A0719a

>  <inspiration_score>  (660) 
None

>  <tags>  (660) 
BulkDock Fragalysis export,fragmenstein_placed,openbind_a71ev2a_c1_knitwork_impure,openbind_a71ev2a_c1_scaffolds

>  <fragmenstein_outcome>  (660) 
acceptable

>  <fragmenstein_error>  (660) 


>  <distance_score>  (660) 
0.899193

>  <inchikey>  (660) 
XZMDXLGITMJJAR-UHFFFAOYSA-N

>  <name>  (660) 
C8141-P224

>  <HIPPO Pose ID>  (660) 
381977

>  <Energy>  (660) 
57.842078

>  <exports>  (660) 
['/opt/xchem-fragalysis-2/maxwin/BulkDock/OUTPUTS/openbind_a71ev2a_c1_knitwork_impure_165VXJF.sdf', '/opt/xchem-fragalysis-2/maxwin/BulkDock/OUTPUTS/openbind_a71ev2a_c1_knitwork_impure_1B07QS4.sdf', '/opt/xchem-fragalysis-2/maxwin/BulkDock/OUTPUTS/openbind_a71ev2a_c1_knitwork_impure_1B07X5R.sdf', '/opt/xchem-fragalysis-2/maxwin/openbind-hippo/a71ev2a/openbind_a71ev2a_c1_scaffold_products.sdf', '/opt/xchem-fragalysis-2/maxwin/openbind-hippo/a71ev2a/cycle_01/bulkdock/openbind_a71ev2a_c1_scaffold_products.sdf', '/opt/xchem-fragalysis-2/maxwin/openbind-hippo/a71ev2a/cycle_01/bulkdock/openbind_a71ev2a_c1_scaffolds.sdf']

>  <fragmenstein_runtime>  (660) 
2.758245

$$$$
C8155-P224
     RDKit          3D

 16 16  0  0  0  0  0  0  0  0999 V2000
   11.4121   15.0415   18.7784 C   0  0  0  0  0  0  0  0  0  0  0  0
   10.5539   15.8458   19.6924 C   0  0  0  0  0  0  0  0  0  0  0  0
   10.8116   16.1486   20.9707 C   0  0  0  0  0  0  0  0  0  0  0  0
   12.0140   15.7764   21.6778 C   0  0  0  0  0  0  0  0  0  0  0  0
   12.0170   15.2482   22.9113 C   0  0  0  0  0  0  0  0  0  0  0  0
   10.8005   14.9122   23.7044 C   0  0  0  0  0  0  0  0  0  0  0  0
   10.1070   13.8304   23.0141 N   0  0  0  0  0  0  0  0  0  0  0  0
    8.5656   13.4978   23.5302 S   0  0  0  0  0  0  0  0  0  0  0  0
    8.3542   14.1658   24.7908 O   0  0  0  0  0  0  0  0  0  0  0  0
    7.6947   13.6219   22.3882 O   0  0  0  0  0  0  0  0  0  0  0  0
    8.6629   11.8486   23.8370 N   0  0  0  0  0  0  0  0  0  0  0  0
    8.1397   11.4634   25.1520 C   0  0  0  0  0  0  0  0  0  0  0  0
    7.8436    9.9845   25.2013 C   0  0  0  0  0  0  0  0  0  0  0  0
    8.6397    9.1247   24.2348 C   0  0  0  0  0  0  0  0  0  0  0  0
    9.9039    9.6996   23.6669 C   0  0  0  0  0  0  0  0  0  0  0  0
    9.9315   11.2011   23.4936 C   0  0  0  0  0  0  0  0  0  0  0  0
  1  2  1  0
  2  3  2  3
  3  4  1  0
  4  5  2  3
  5  6  1  0
  6  7  1  0
  7  8  1  0
  8  9  2  0
  8 10  2  0
  8 11  1  0
 11 12  1  0
 12 13  1  0
 13 14  1  0
 14 15  1  0
 15 16  1  0
 16 11  1  0
M  END
>  <ref_pdb>  (661) 
A3849a

>  <subsites>  (661) 
1 - Active Site

>  <HIPPO Compound ID>  (661) 
21167

>  <energy_score>  (661) 
-23.017703

>  <fragmenstein_mode>  (661) 
expansion

>  <scratch_subdir>  (661) 
/opt/xchem-fragalysis-2/maxwin/BulkDock/SCRATCH/512201/C8155-P224

>  <smiles>  (661) 
CC=CC=CCNS(=O)(=O)N1CCCCC1

>  <alias>  (661) 
C8155-P224

>  <ref_mols>  (661) 
A3849a,A0719a

>  <inspiration_score>  (661) 
None

>  <tags>  (661) 
BulkDock Fragalysis export,fragmenstein_placed,openbind_a71ev2a_c1_knitwork_impure,openbind_a71ev2a_c1_scaffolds

>  <fragmenstein_outcome>  (661) 
acceptable

>  <fragmenstein_error>  (661) 


>  <distance_score>  (661) 
0.979028

>  <inchikey>  (661) 
NKBIUPWOQPIFKU-UHFFFAOYSA-N

>  <name>  (661) 
C8155-P224

>  <HIPPO Pose ID>  (661) 
381986

>  <Energy>  (661) 
-171.516589

>  <exports>  (661) 
['/opt/xchem-fragalysis-2/maxwin/BulkDock/OUTPUTS/openbind_a71ev2a_c1_knitwork_impure_165VXJF.sdf', '/opt/xchem-fragalysis-2/maxwin/BulkDock/OUTPUTS/openbind_a71ev2a_c1_knitwork_impure_1B07QS4.sdf', '/opt/xchem-fragalysis-2/maxwin/BulkDock/OUTPUTS/openbind_a71ev2a_c1_knitwork_impure_1B07X5R.sdf', '/opt/xchem-fragalysis-2/maxwin/openbind-hippo/a71ev2a/openbind_a71ev2a_c1_scaffold_products.sdf', '/opt/xchem-fragalysis-2/maxwin/openbind-hippo/a71ev2a/cycle_01/bulkdock/openbind_a71ev2a_c1_scaffold_products.sdf', '/opt/xchem-fragalysis-2/maxwin/openbind-hippo/a71ev2a/cycle_01/bulkdock/openbind_a71ev2a_c1_scaffolds.sdf']

>  <fragmenstein_runtime>  (661) 
5.001714

$$$$
C8169-P224
     RDKit          3D

 14 14  0  0  0  0  0  0  0  0999 V2000
    8.8197   14.4211   24.8447 O   0  0  0  0  0  0  0  0  0  0  0  0
    8.8496   13.5278   23.7171 S   0  0  0  0  0  0  0  0  0  0  0  0
    7.7606   13.4055   22.7734 O   0  0  0  0  0  0  0  0  0  0  0  0
   10.1841   13.8197   22.8037 N   0  0  0  0  0  0  0  0  0  0  0  0
   11.4820   14.0680   23.4019 C   0  0  0  0  0  0  0  0  0  0  0  0
   11.9531   15.4834   23.1108 C   0  0  0  0  0  0  0  0  0  0  0  0
   12.1729   15.7979   21.6325 C   0  0  0  0  0  0  0  0  0  0  0  0
   10.6407   15.9722   20.7371 Cl  0  0  0  0  0  0  0  0  0  0  0  0
    9.1611   11.9652   24.3410 N   0  0  0  0  0  0  0  0  0  0  0  0
    9.6731   11.0650   23.2929 C   0  0  0  0  0  0  0  0  0  0  0  0
    9.8904    9.6494   23.7329 C   0  0  0  0  0  0  0  0  0  0  0  0
    8.6286    9.0945   24.3142 C   0  0  0  0  0  0  0  0  0  0  0  0
    7.9297    9.9997   25.3108 C   0  0  0  0  0  0  0  0  0  0  0  0
    7.8964   11.4676   24.9607 C   0  0  0  0  0  0  0  0  0  0  0  0
  1  2  2  0
  2  3  2  0
  2  4  1  0
  4  5  1  0
  5  6  1  0
  6  7  1  0
  7  8  1  0
  2  9  1  0
  9 10  1  0
 10 11  1  0
 11 12  1  0
 12 13  1  0
 13 14  1  0
 14  9  1  0
M  END
>  <ref_pdb>  (662) 
A3849a

>  <subsites>  (662) 
1 - Active Site

>  <HIPPO Compound ID>  (662) 
91081

>  <energy_score>  (662) 
-43.71981

>  <fragmenstein_mode>  (662) 
expansion

>  <scratch_subdir>  (662) 
/opt/xchem-fragalysis-2/maxwin/BulkDock/SCRATCH/512201/C8169-P224

>  <smiles>  (662) 
O=S(=O)(NCCCCl)N1CCCCC1

>  <alias>  (662) 
C8169-P224

>  <ref_mols>  (662) 
A3849a,A0719a

>  <inspiration_score>  (662) 
None

>  <tags>  (662) 
BulkDock Fragalysis export,fragmenstein_placed,openbind_a71ev2a_c1_knitwork_impure,openbind_a71ev2a_c1_scaffolds

>  <fragmenstein_outcome>  (662) 
acceptable

>  <fragmenstein_error>  (662) 


>  <distance_score>  (662) 
0.950727

>  <inchikey>  (662) 
AJZMAQJSZWQBTD-UHFFFAOYSA-N

>  <name>  (662) 
C8169-P224

>  <HIPPO Pose ID>  (662) 
381997

>  <Energy>  (662) 
-175.29833

>  <exports>  (662) 
['/opt/xchem-fragalysis-2/maxwin/BulkDock/OUTPUTS/openbind_a71ev2a_c1_knitwork_impure_165VXJF.sdf', '/opt/xchem-fragalysis-2/maxwin/BulkDock/OUTPUTS/openbind_a71ev2a_c1_knitwork_impure_1B07QS4.sdf', '/opt/xchem-fragalysis-2/maxwin/BulkDock/OUTPUTS/openbind_a71ev2a_c1_knitwork_impure_1B07X5R.sdf', '/opt/xchem-fragalysis-2/maxwin/openbind-hippo/a71ev2a/openbind_a71ev2a_c1_scaffold_products.sdf', '/opt/xchem-fragalysis-2/maxwin/openbind-hippo/a71ev2a/cycle_01/bulkdock/openbind_a71ev2a_c1_scaffold_products.sdf', '/opt/xchem-fragalysis-2/maxwin/openbind-hippo/a71ev2a/cycle_01/bulkdock/openbind_a71ev2a_c1_scaffolds.sdf']

>  <fragmenstein_runtime>  (662) 
5.302585

$$$$
C8176-P224
     RDKit          3D

 15 15  0  0  0  0  0  0  0  0999 V2000
    8.1221   14.8649   25.2455 C   0  0  0  0  0  0  0  0  0  0  0  0
    8.6342   13.4925   24.7909 C   0  0  2  0  0  0  0  0  0  0  0  0
    9.8712   13.2556   25.4589 O   0  0  0  0  0  0  0  0  0  0  0  0
    8.7667   13.5471   23.2406 C   0  0  0  0  0  0  0  0  0  0  0  0
    7.9049   13.0376   22.5108 O   0  0  0  0  0  0  0  0  0  0  0  0
    9.9348   14.3384   22.6725 C   0  0  0  0  0  0  0  0  0  0  0  0
   10.8958   14.6194   23.6011 F   0  0  0  0  0  0  0  0  0  0  0  0
   10.5615   13.7003   21.6606 F   0  0  0  0  0  0  0  0  0  0  0  0
    9.2084   15.9980   21.9591 Br  0  0  0  0  0  0  0  0  0  0  0  0
    7.6275   12.3534   25.1865 C   0  0  2  0  0  0  0  0  0  0  0  0
    7.0197   12.4890   26.5891 C   0  0  0  0  0  0  0  0  0  0  0  0
    6.1262   11.3197   26.9958 C   0  0  0  0  0  0  0  0  0  0  0  0
    6.3599   10.0390   26.2132 C   0  0  0  0  0  0  0  0  0  0  0  0
    7.7341    9.8798   25.7946 N   0  0  0  0  0  0  0  0  0  0  0  0
    8.2308   10.9555   24.9442 C   0  0  0  0  0  0  0  0  0  0  0  0
  2  1  1  1
  2  3  1  0
  2  4  1  0
  4  5  2  0
  4  6  1  0
  6  7  1  0
  6  8  1  0
  6  9  1  0
  2 10  1  0
 10 11  1  1
 11 12  1  0
 12 13  1  0
 13 14  1  0
 14 15  1  0
 15 10  1  0
M  END
>  <ref_pdb>  (663) 
A3849a

>  <subsites>  (663) 
1 - Active Site

>  <HIPPO Compound ID>  (663) 
12411

>  <energy_score>  (663) 
-24.181138

>  <fragmenstein_mode>  (663) 
expansion

>  <scratch_subdir>  (663) 
/opt/xchem-fragalysis-2/maxwin/BulkDock/SCRATCH/512201/C8176-P224

>  <smiles>  (663) 
C[C@](O)(C(=O)C(F)(F)Br)[C@@H]1CCCNC1

>  <alias>  (663) 
C8176-P224

>  <ref_mols>  (663) 
A3849a,A0719a

>  <inspiration_score>  (663) 
None

>  <tags>  (663) 
BulkDock Fragalysis export,fragmenstein_placed,openbind_a71ev2a_c1_knitwork_impure,openbind_a71ev2a_c1_scaffolds

>  <fragmenstein_outcome>  (663) 
acceptable

>  <fragmenstein_error>  (663) 


>  <distance_score>  (663) 
0.951041

>  <inchikey>  (663) 
GOIIBLCLDRWXDI-UHFFFAOYSA-N

>  <name>  (663) 
C8176-P224

>  <HIPPO Pose ID>  (663) 
382003

>  <Energy>  (663) 
79.202313

>  <exports>  (663) 
['/opt/xchem-fragalysis-2/maxwin/BulkDock/OUTPUTS/openbind_a71ev2a_c1_knitwork_impure_165VXJF.sdf', '/opt/xchem-fragalysis-2/maxwin/BulkDock/OUTPUTS/openbind_a71ev2a_c1_knitwork_impure_1B07QS4.sdf', '/opt/xchem-fragalysis-2/maxwin/BulkDock/OUTPUTS/openbind_a71ev2a_c1_knitwork_impure_1B07X5R.sdf', '/opt/xchem-fragalysis-2/maxwin/openbind-hippo/a71ev2a/openbind_a71ev2a_c1_scaffold_products.sdf', '/opt/xchem-fragalysis-2/maxwin/openbind-hippo/a71ev2a/cycle_01/bulkdock/openbind_a71ev2a_c1_scaffold_products.sdf', '/opt/xchem-fragalysis-2/maxwin/openbind-hippo/a71ev2a/cycle_01/bulkdock/openbind_a71ev2a_c1_scaffolds.sdf']

>  <fragmenstein_runtime>  (663) 
0.912629

$$$$
C1390-P218
     RDKit          3D

 17 17  0  0  0  0  0  0  0  0999 V2000
   12.5295   15.7933   21.2697 C   0  0  0  0  0  0  0  0  0  0  0  0
   12.0808   15.1130   22.5583 C   0  0  0  0  0  0  0  0  0  0  0  0
   11.0202   15.9424   23.2748 C   0  0  0  0  0  0  0  0  0  0  0  0
    9.5600   15.5563   22.9831 C   0  0  2  0  0  0  0  0  0  0  0  0
    9.1519   14.3261   23.6641 N   0  0  0  0  0  0  0  0  0  0  0  0
    9.6121   13.7253   25.0041 C   0  0  0  0  0  0  0  0  0  0  0  0
   10.4444   14.0735   25.7422 O   0  0  0  0  0  0  0  0  0  0  0  0
    8.7412   12.5209   25.3245 C   0  0  0  0  0  0  0  0  0  0  0  0
    7.3060   12.8722   25.6962 C   0  0  0  0  0  0  0  0  0  0  0  0
    6.6234   11.6518   26.3141 C   0  0  0  0  0  0  0  0  0  0  0  0
    6.7497   10.4462   25.5031 N   0  0  0  0  0  0  0  0  0  0  0  0
    8.0838   10.1686   24.9861 C   0  0  0  0  0  0  0  0  0  0  0  0
    8.7709   11.3715   24.3399 C   0  0  0  0  0  0  0  0  0  0  0  0
    9.2112   15.5513   21.4889 C   0  0  0  0  0  0  0  0  0  0  0  0
    9.9787   14.7087   20.7705 F   0  0  0  0  0  0  0  0  0  0  0  0
    9.3271   16.7830   20.9507 F   0  0  0  0  0  0  0  0  0  0  0  0
    7.9257   15.1439   21.3274 F   0  0  0  0  0  0  0  0  0  0  0  0
  1  2  1  0
  2  3  1  0
  4  3  1  6
  4  5  1  0
  5  6  1  0
  6  7  2  0
  6  8  1  0
  8  9  1  0
  9 10  1  0
 10 11  1  0
 11 12  1  0
 12 13  1  0
  4 14  1  0
 14 15  1  0
 14 16  1  0
 14 17  1  0
 13  8  1  0
M  END
>  <ref_pdb>  (664) 
A3557b

>  <subsites>  (664) 
1 - Active Site

>  <HIPPO Compound ID>  (664) 
1419

>  <energy_score>  (664) 
-6.424578

>  <fragmenstein_mode>  (664) 
expansion

>  <scratch_subdir>  (664) 
/opt/xchem-fragalysis-2/maxwin/BulkDock/SCRATCH/512201/C1390-P218

>  <smiles>  (664) 
CCC[C@H](NC(=O)C1CCNCC1)C(F)(F)F

>  <alias>  (664) 
C1390-P218

>  <ref_mols>  (664) 
A3557b,A1778a

>  <inspiration_score>  (664) 
None

>  <tags>  (664) 
BulkDock Fragalysis export,fragmenstein_placed,openbind_a71ev2a_c1_knitwork_impure,openbind_a71ev2a_c1_scaffolds

>  <fragmenstein_outcome>  (664) 
acceptable

>  <fragmenstein_error>  (664) 


>  <distance_score>  (664) 
0.96221

>  <inchikey>  (664) 
BYXOCXSSHQOHSD-UHFFFAOYSA-N

>  <name>  (664) 
C1390-P218

>  <HIPPO Pose ID>  (664) 
382459

>  <Energy>  (664) 
46.882851

>  <exports>  (664) 
['/opt/xchem-fragalysis-2/maxwin/BulkDock/OUTPUTS/openbind_a71ev2a_c1_knitwork_impure_165VXJF.sdf', '/opt/xchem-fragalysis-2/maxwin/BulkDock/OUTPUTS/openbind_a71ev2a_c1_knitwork_impure_1B07QS4.sdf', '/opt/xchem-fragalysis-2/maxwin/BulkDock/OUTPUTS/openbind_a71ev2a_c1_knitwork_impure_1B07X5R.sdf', '/opt/xchem-fragalysis-2/maxwin/openbind-hippo/a71ev2a/openbind_a71ev2a_c1_scaffold_products.sdf', '/opt/xchem-fragalysis-2/maxwin/openbind-hippo/a71ev2a/cycle_01/bulkdock/openbind_a71ev2a_c1_scaffold_products.sdf', '/opt/xchem-fragalysis-2/maxwin/openbind-hippo/a71ev2a/cycle_01/bulkdock/openbind_a71ev2a_c1_scaffolds.sdf']

>  <fragmenstein_runtime>  (664) 
4.269161

$$$$
C4666-P245
     RDKit          3D

 10 10  0  0  0  0  0  0  0  0999 V2000
   10.2004   12.7130   24.3620 C   0  0  0  0  0  0  0  0  0  0  0  0
    9.2934   13.4654   23.3977 C   0  0  1  0  0  0  0  0  0  0  0  0
    7.8555   13.0719   23.7845 C   0  0  0  0  0  0  0  0  0  0  0  0
    7.5656   12.1287   24.5273 O   0  0  0  0  0  0  0  0  0  0  0  0
    9.4201   14.9443   23.4259 N   0  0  0  0  0  0  0  0  0  0  0  0
   10.7559   15.4567   23.8005 C   0  0  0  0  0  0  0  0  0  0  0  0
   11.8390   15.2755   22.7173 C   0  0  0  0  0  0  0  0  0  0  0  0
   11.4815   15.9640   21.4769 N   0  0  0  0  0  0  0  0  0  0  0  0
   10.1841   15.4546   21.0119 C   0  0  0  0  0  0  0  0  0  0  0  0
    9.0745   15.5365   22.0957 C   0  0  0  0  0  0  0  0  0  0  0  0
  2  1  1  1
  2  3  1  0
  3  4  2  0
  2  5  1  0
  5  6  1  0
  6  7  1  0
  7  8  1  0
  8  9  1  0
  9 10  1  0
 10  5  1  0
M  END
>  <ref_pdb>  (665) 
A3942a

>  <subsites>  (665) 
1 - Active Site

>  <HIPPO Compound ID>  (665) 
7147

>  <energy_score>  (665) 
-22.493821

>  <fragmenstein_mode>  (665) 
expansion

>  <scratch_subdir>  (665) 
/opt/xchem-fragalysis-2/maxwin/BulkDock/SCRATCH/512201/C4666-P245

>  <smiles>  (665) 
C[C@@H](C=O)N1CCNCC1

>  <alias>  (665) 
C4666-P245

>  <ref_mols>  (665) 
A1775a,A3942a

>  <inspiration_score>  (665) 
None

>  <tags>  (665) 
BulkDock Fragalysis export,fragmenstein_placed,openbind_a71ev2a_c1_knitwork_impure,openbind_a71ev2a_c1_scaffolds

>  <fragmenstein_outcome>  (665) 
acceptable

>  <fragmenstein_error>  (665) 


>  <distance_score>  (665) 
0.988246

>  <inchikey>  (665) 
ZRXPCXKVGFOFRK-UHFFFAOYSA-N

>  <name>  (665) 
C4666-P245

>  <HIPPO Pose ID>  (665) 
382702

>  <Energy>  (665) 
104.169977

>  <exports>  (665) 
['/opt/xchem-fragalysis-2/maxwin/BulkDock/OUTPUTS/openbind_a71ev2a_c1_knitwork_impure_165VXJF.sdf', '/opt/xchem-fragalysis-2/maxwin/BulkDock/OUTPUTS/openbind_a71ev2a_c1_knitwork_impure_1B07QS4.sdf', '/opt/xchem-fragalysis-2/maxwin/BulkDock/OUTPUTS/openbind_a71ev2a_c1_knitwork_impure_1B07X5R.sdf', '/opt/xchem-fragalysis-2/maxwin/openbind-hippo/a71ev2a/openbind_a71ev2a_c1_scaffold_products.sdf', '/opt/xchem-fragalysis-2/maxwin/openbind-hippo/a71ev2a/cycle_01/bulkdock/openbind_a71ev2a_c1_scaffold_products.sdf', '/opt/xchem-fragalysis-2/maxwin/openbind-hippo/a71ev2a/cycle_01/bulkdock/openbind_a71ev2a_c1_scaffolds.sdf']

>  <fragmenstein_runtime>  (665) 
0.976959

$$$$
C1405-P195
     RDKit          3D

 18 18  0  0  0  0  0  0  0  0999 V2000
    7.8436   13.9968   22.0156 N   0  0  0  0  0  0  0  0  0  0  0  0
    8.0059   13.9336   23.1605 C   0  0  0  0  0  0  0  0  0  0  0  0
    8.0604   13.7881   24.6170 C   0  0  0  0  0  0  0  0  0  0  0  0
    7.0547   12.7109   25.0479 C   0  0  2  0  0  0  0  0  0  0  0  0
    6.6367   12.9133   26.4495 N   0  0  0  0  0  0  0  0  0  0  0  0
    5.7094   12.0652   27.3541 C   0  0  0  0  0  0  0  0  0  0  0  0
    5.1961   11.0389   27.1568 O   0  0  0  0  0  0  0  0  0  0  0  0
    5.6003   12.8296   28.6754 C   0  0  0  0  0  0  0  0  0  0  0  0
    4.8913   12.0247   29.7777 C   0  0  0  0  0  0  0  0  0  0  0  0
    4.5227   12.9377   30.9577 C   0  0  0  0  0  0  0  0  0  0  0  0
    3.9073   12.1399   32.1075 C   0  0  0  0  0  0  0  0  0  0  0  0
    4.7915   11.0635   32.5552 N   0  0  0  0  0  0  0  0  0  0  0  0
    5.0946   10.1427   31.4596 C   0  0  0  0  0  0  0  0  0  0  0  0
    5.7616   10.8616   30.2875 C   0  0  0  0  0  0  0  0  0  0  0  0
    7.6879   11.3252   24.8034 C   0  0  0  0  0  0  0  0  0  0  0  0
    6.8320   10.2986   24.9298 F   0  0  0  0  0  0  0  0  0  0  0  0
    8.2829   11.2322   23.5973 F   0  0  0  0  0  0  0  0  0  0  0  0
    8.6563   11.1524   25.7234 F   0  0  0  0  0  0  0  0  0  0  0  0
  1  2  3  0
  2  3  1  0
  4  3  1  1
  4  5  1  0
  5  6  1  0
  6  7  2  0
  6  8  1  0
  8  9  1  0
  9 10  1  0
 10 11  1  0
 11 12  1  0
 12 13  1  0
 13 14  1  0
  4 15  1  0
 15 16  1  0
 15 17  1  0
 15 18  1  0
 14  9  1  0
M  END
>  <ref_pdb>  (666) 
A3612a

>  <subsites>  (666) 
1 - Active Site,6 - A0486/A/147/1

>  <HIPPO Compound ID>  (666) 
1877

>  <energy_score>  (666) 
-17.555762

>  <fragmenstein_mode>  (666) 
expansion

>  <scratch_subdir>  (666) 
/opt/xchem-fragalysis-2/maxwin/BulkDock/SCRATCH/512201/C1405-P195

>  <smiles>  (666) 
N#CC[C@H](NC(=O)CC1CCNCC1)C(F)(F)F

>  <alias>  (666) 
C1405-P195

>  <ref_mols>  (666) 
A0486a,A3612a

>  <inspiration_score>  (666) 
None

>  <tags>  (666) 
BulkDock Fragalysis export,fragmenstein_placed,openbind_a71ev2a_c1_knitwork_impure,openbind_a71ev2a_c1_scaffolds

>  <fragmenstein_outcome>  (666) 
acceptable

>  <fragmenstein_error>  (666) 


>  <distance_score>  (666) 
0.953493

>  <inchikey>  (666) 
JUJYNCPRVMVRCV-UHFFFAOYSA-N

>  <name>  (666) 
C1405-P195

>  <HIPPO Pose ID>  (666) 
383381

>  <Energy>  (666) 
30.767539

>  <exports>  (666) 
['/opt/xchem-fragalysis-2/maxwin/BulkDock/OUTPUTS/openbind_a71ev2a_c1_knitwork_impure_165VXJF.sdf', '/opt/xchem-fragalysis-2/maxwin/BulkDock/OUTPUTS/openbind_a71ev2a_c1_knitwork_impure_1B07QS4.sdf', '/opt/xchem-fragalysis-2/maxwin/BulkDock/OUTPUTS/openbind_a71ev2a_c1_knitwork_impure_1B07X5R.sdf', '/opt/xchem-fragalysis-2/maxwin/openbind-hippo/a71ev2a/openbind_a71ev2a_c1_scaffold_products.sdf', '/opt/xchem-fragalysis-2/maxwin/openbind-hippo/a71ev2a/cycle_01/bulkdock/openbind_a71ev2a_c1_scaffold_products.sdf', '/opt/xchem-fragalysis-2/maxwin/openbind-hippo/a71ev2a/cycle_01/bulkdock/openbind_a71ev2a_c1_scaffolds.sdf']

>  <fragmenstein_runtime>  (666) 
14.507724

$$$$
C2410-P338
     RDKit          3D

 14 14  0  0  0  0  0  0  0  0999 V2000
    9.9684   15.6752   23.3860 C   0  0  0  0  0  0  0  0  0  0  0  0
    9.3397   14.4450   22.7679 C   0  0  0  0  0  0  0  0  0  0  0  0
    8.9856   14.7418   21.4891 F   0  0  0  0  0  0  0  0  0  0  0  0
   10.2780   13.4670   22.6964 F   0  0  0  0  0  0  0  0  0  0  0  0
    8.1132   13.9053   23.4968 C   0  0  0  0  0  0  0  0  0  0  0  0
    8.3970   13.4721   24.9407 C   0  0  0  0  0  0  0  0  0  0  0  0
    7.2199   13.5676   25.9209 C   0  0  2  0  0  0  0  0  0  0  0  0
    6.1566   12.8794   25.4257 F   0  0  0  0  0  0  0  0  0  0  0  0
    6.7664   14.9851   26.3718 C   0  0  1  0  0  0  0  0  0  0  0  0
    7.8458   15.6542   27.2400 C   0  0  0  0  0  0  0  0  0  0  0  0
    7.3897   17.0219   27.7395 C   0  0  0  0  0  0  0  0  0  0  0  0
    6.9513   17.8924   26.5696 C   0  0  0  0  0  0  0  0  0  0  0  0
    5.9176   17.1811   25.7046 C   0  0  0  0  0  0  0  0  0  0  0  0
    6.3981   15.8722   25.2583 N   0  0  0  0  0  0  0  0  0  0  0  0
  1  2  1  0
  2  3  1  0
  2  4  1  0
  2  5  1  0
  5  6  1  0
  6  7  1  0
  7  8  1  6
  7  9  1  0
  9 10  1  6
 10 11  1  0
 11 12  1  0
 12 13  1  0
 13 14  1  0
 14  9  1  0
M  END
>  <ref_pdb>  (667) 
A4237a

>  <subsites>  (667) 
1 - Active Site

>  <HIPPO Compound ID>  (667) 
10215

>  <energy_score>  (667) 
-32.078646

>  <fragmenstein_mode>  (667) 
expansion

>  <scratch_subdir>  (667) 
/opt/xchem-fragalysis-2/maxwin/BulkDock/SCRATCH/512201/C2410-P338

>  <smiles>  (667) 
CC(F)(F)CC[C@H](F)[C@H]1CCCCN1

>  <alias>  (667) 
C2410-P338

>  <ref_mols>  (667) 
A4237a,A1775a

>  <inspiration_score>  (667) 
None

>  <tags>  (667) 
BulkDock Fragalysis export,fragmenstein_placed,openbind_a71ev2a_c1_knitwork_impure,openbind_a71ev2a_c1_scaffolds

>  <fragmenstein_outcome>  (667) 
acceptable

>  <fragmenstein_error>  (667) 


>  <distance_score>  (667) 
0.982469

>  <inchikey>  (667) 
FPIYKYLQFSMPTN-UHFFFAOYSA-N

>  <name>  (667) 
C2410-P338

>  <HIPPO Pose ID>  (667) 
383475

>  <Energy>  (667) 
29.269886

>  <exports>  (667) 
['/opt/xchem-fragalysis-2/maxwin/BulkDock/OUTPUTS/openbind_a71ev2a_c1_knitwork_impure_165VXJF.sdf', '/opt/xchem-fragalysis-2/maxwin/BulkDock/OUTPUTS/openbind_a71ev2a_c1_knitwork_impure_1B07QS4.sdf', '/opt/xchem-fragalysis-2/maxwin/BulkDock/OUTPUTS/openbind_a71ev2a_c1_knitwork_impure_1B07X5R.sdf', '/opt/xchem-fragalysis-2/maxwin/openbind-hippo/a71ev2a/openbind_a71ev2a_c1_scaffold_products.sdf', '/opt/xchem-fragalysis-2/maxwin/openbind-hippo/a71ev2a/cycle_01/bulkdock/openbind_a71ev2a_c1_scaffold_products.sdf', '/opt/xchem-fragalysis-2/maxwin/openbind-hippo/a71ev2a/cycle_01/bulkdock/openbind_a71ev2a_c1_scaffolds.sdf']

>  <fragmenstein_runtime>  (667) 
1.848741

$$$$
C7479-P2
     RDKit          3D

 23 24  0  0  0  0  0  0  0  0999 V2000
    3.3883   12.2406   18.2644 C   0  0  0  0  0  0  0  0  0  0  0  0
    3.3268   12.5789   19.7532 C   0  0  0  0  0  0  0  0  0  0  0  0
    2.3072   11.6878   20.4613 C   0  0  0  0  0  0  0  0  0  0  0  0
    3.0170   14.0084   19.9813 C   0  0  0  0  0  0  0  0  0  0  0  0
    2.1119   14.5708   19.1274 O   0  0  0  0  0  0  0  0  0  0  0  0
    2.0330   15.8581   19.5268 C   0  0  0  0  0  0  0  0  0  0  0  0
    2.7808   16.1704   20.5643 N   0  0  0  0  0  0  0  0  0  0  0  0
    3.3999   14.9740   20.8971 C   0  0  0  0  0  0  0  0  0  0  0  0
    4.2980   14.8619   22.0934 C   0  0  0  0  0  0  0  0  0  0  0  0
    5.5631   15.5067   21.7798 N   0  0  0  0  0  0  0  0  0  0  0  0
    6.9832   14.7499   22.2179 S   0  0  0  0  0  0  0  0  0  0  0  0
    6.7529   13.3692   21.8113 O   0  0  0  0  0  0  0  0  0  0  0  0
    7.9552   15.4581   21.4113 O   0  0  0  0  0  0  0  0  0  0  0  0
    6.9327   15.0168   23.7278 N   0  0  0  0  0  0  0  0  0  0  0  0
    8.2806   14.7328   24.4154 S   0  0  2  0  0  0  0  0  0  0  0  0
    8.1106   15.3439   26.0806 C   0  0  0  0  0  0  0  0  0  0  0  0
    9.5538   15.2451   23.9554 O   0  0  0  0  0  0  0  0  0  0  0  0
    8.5154   12.9635   24.7110 C   0  0  0  0  0  0  0  0  0  0  0  0
    9.2971   12.3099   23.5751 C   0  0  0  0  0  0  0  0  0  0  0  0
    9.3526   10.7884   23.5933 C   0  0  0  0  0  0  0  0  0  0  0  0
    8.2318   10.0392   24.2839 C   0  0  0  0  0  0  0  0  0  0  0  0
    7.4102   10.7898   25.3132 C   0  0  0  0  0  0  0  0  0  0  0  0
    7.2037   12.2542   24.9944 C   0  0  0  0  0  0  0  0  0  0  0  0
  1  2  1  0
  2  3  1  0
  2  4  1  0
  4  5  1  0
  5  6  1  0
  6  7  2  0
  7  8  1  0
  8  9  1  0
  9 10  1  0
 10 11  1  0
 11 12  2  0
 11 13  2  0
 11 14  1  0
 14 15  2  0
 15 16  1  1
 15 17  2  0
 15 18  1  0
 18 19  1  0
 19 20  1  0
 20 21  1  0
 21 22  1  0
 22 23  1  0
  8  4  2  0
 23 18  1  0
M  END
>  <ref_pdb>  (668) 
A4298a

>  <subsites>  (668) 
1 - Active Site

>  <HIPPO Compound ID>  (668) 
4291

>  <energy_score>  (668) 
-237.08685

>  <fragmenstein_mode>  (668) 
expansion

>  <scratch_subdir>  (668) 
/opt/xchem-fragalysis-2/maxwin/BulkDock/SCRATCH/512201/C7479-P2

>  <smiles>  (668) 
CC(C)c1ocnc1CNS(=O)(=O)N=[S@](C)(=O)C1CCCCC1

>  <alias>  (668) 
C7479-P2

>  <ref_mols>  (668) 
A3623a,A4298a

>  <inspiration_score>  (668) 
None

>  <tags>  (668) 
BulkDock Fragalysis export,fragmenstein_placed,openbind_a71ev2a_c1_knitwork_impure,openbind_a71ev2a_c1_scaffolds

>  <fragmenstein_outcome>  (668) 
acceptable

>  <fragmenstein_error>  (668) 


>  <distance_score>  (668) 
0.868846

>  <inchikey>  (668) 
AJQNPQKWWJKQFB-UHFFFAOYSA-N

>  <name>  (668) 
C7479-P2

>  <HIPPO Pose ID>  (668) 
383617

>  <Energy>  (668) 
-240.641117

>  <exports>  (668) 
['/opt/xchem-fragalysis-2/maxwin/BulkDock/OUTPUTS/openbind_a71ev2a_c1_knitwork_impure_165VXJF.sdf', '/opt/xchem-fragalysis-2/maxwin/BulkDock/OUTPUTS/openbind_a71ev2a_c1_knitwork_impure_1B07QS4.sdf', '/opt/xchem-fragalysis-2/maxwin/BulkDock/OUTPUTS/openbind_a71ev2a_c1_knitwork_impure_1B07X5R.sdf', '/opt/xchem-fragalysis-2/maxwin/openbind-hippo/a71ev2a/openbind_a71ev2a_c1_scaffold_products.sdf', '/opt/xchem-fragalysis-2/maxwin/openbind-hippo/a71ev2a/cycle_01/bulkdock/openbind_a71ev2a_c1_scaffold_products.sdf', '/opt/xchem-fragalysis-2/maxwin/openbind-hippo/a71ev2a/cycle_01/bulkdock/openbind_a71ev2a_c1_scaffolds.sdf']

>  <fragmenstein_runtime>  (668) 
4.136508

$$$$
C4745-P465
     RDKit          3D

 11 12  0  0  0  0  0  0  0  0999 V2000
   11.3128   15.1966   22.3059 C   0  0  0  0  0  0  0  0  0  0  0  0
   10.9359   14.4939   23.4258 C   0  0  0  0  0  0  0  0  0  0  0  0
    9.5978   14.0914   23.1759 C   0  0  0  0  0  0  0  0  0  0  0  0
    8.6867   13.1993   23.9757 C   0  0  2  0  0  0  0  0  0  0  0  0
    8.4233   13.7038   25.4081 C   0  0  0  0  0  0  0  0  0  0  0  0
    7.3892   12.9903   26.1980 N   0  0  0  0  0  0  0  0  0  0  0  0
    7.0874   11.6462   25.6857 C   0  0  0  0  0  0  0  0  0  0  0  0
    8.3216   10.8081   25.3571 C   0  0  0  0  0  0  0  0  0  0  0  0
    9.3419   11.4778   24.0153 S   0  0  0  0  0  0  0  0  0  0  0  0
    9.1538   14.5914   22.0134 N   0  0  0  0  0  0  0  0  0  0  0  0
   10.2353   15.1771   21.4688 N   0  0  0  0  0  0  0  0  0  0  0  0
  1  2  2  0
  2  3  1  0
  4  3  1  1
  4  5  1  0
  5  6  1  0
  6  7  1  0
  7  8  1  0
  8  9  1  0
  3 10  2  0
 10 11  1  0
 11  1  1  0
  9  4  1  0
M  END
>  <ref_pdb>  (669) 
A4786a

>  <subsites>  (669) 
1 - Active Site

>  <HIPPO Compound ID>  (669) 
9987

>  <energy_score>  (669) 
-27.661957

>  <fragmenstein_mode>  (669) 
expansion

>  <scratch_subdir>  (669) 
/opt/xchem-fragalysis-2/maxwin/BulkDock/SCRATCH/512201/C4745-P465

>  <smiles>  (669) 
c1cc([C@@H]2CNCCS2)n[nH]1

>  <alias>  (669) 
C4745-P465

>  <ref_mols>  (669) 
A2304a,A4786a

>  <inspiration_score>  (669) 
None

>  <tags>  (669) 
BulkDock Fragalysis export,fragmenstein_placed,openbind_a71ev2a_c1_knitwork_impure,openbind_a71ev2a_c1_scaffolds

>  <fragmenstein_outcome>  (669) 
acceptable

>  <fragmenstein_error>  (669) 


>  <distance_score>  (669) 
0.992021

>  <inchikey>  (669) 
MQHOJDGABPALRL-UHFFFAOYSA-N

>  <name>  (669) 
C4745-P465

>  <HIPPO Pose ID>  (669) 
384077

>  <Energy>  (669) 
84.318422

>  <exports>  (669) 
['/opt/xchem-fragalysis-2/maxwin/BulkDock/OUTPUTS/openbind_a71ev2a_c1_knitwork_impure_165VXJF.sdf', '/opt/xchem-fragalysis-2/maxwin/BulkDock/OUTPUTS/openbind_a71ev2a_c1_knitwork_impure_1B07QS4.sdf', '/opt/xchem-fragalysis-2/maxwin/BulkDock/OUTPUTS/openbind_a71ev2a_c1_knitwork_impure_1B07X5R.sdf', '/opt/xchem-fragalysis-2/maxwin/openbind-hippo/a71ev2a/openbind_a71ev2a_c1_scaffold_products.sdf', '/opt/xchem-fragalysis-2/maxwin/openbind-hippo/a71ev2a/cycle_01/bulkdock/openbind_a71ev2a_c1_scaffold_products.sdf', '/opt/xchem-fragalysis-2/maxwin/openbind-hippo/a71ev2a/cycle_01/bulkdock/openbind_a71ev2a_c1_scaffolds.sdf']

>  <fragmenstein_runtime>  (669) 
7.198813

$$$$
C2414-P217
     RDKit          3D

 16 16  0  0  0  0  0  0  0  0999 V2000
    5.4828   10.2718   26.6930 C   0  0  0  0  0  0  0  0  0  0  0  0
    6.0641   11.2640   26.3499 C   0  0  0  0  0  0  0  0  0  0  0  0
    6.8204   12.4295   25.8764 C   0  0  0  0  0  0  0  0  0  0  0  0
    7.8536   11.9839   24.8557 C   0  0  0  0  0  0  0  0  0  0  0  0
    8.9131   13.0208   24.5380 C   0  0  0  0  0  0  0  0  0  0  0  0
   10.0398   12.8062   25.0040 O   0  0  0  0  0  0  0  0  0  0  0  0
    8.5348   14.3210   23.6994 C   0  0  1  0  0  0  0  0  0  0  0  0
    7.3295   13.9886   22.7953 C   0  0  0  0  0  0  0  0  0  0  0  0
    8.1383   15.4222   24.7338 C   0  0  0  0  0  0  0  0  0  0  0  0
    7.3179   16.5911   24.2029 C   0  0  0  0  0  0  0  0  0  0  0  0
    9.7189   14.6547   22.8466 N   0  0  0  0  0  0  0  0  0  0  0  0
   10.8616   15.2420   23.5634 C   0  0  0  0  0  0  0  0  0  0  0  0
   12.1230   15.0959   22.7244 C   0  0  0  0  0  0  0  0  0  0  0  0
   11.9813   15.8556   21.4176 C   0  0  0  0  0  0  0  0  0  0  0  0
   10.7335   15.3927   20.6848 C   0  0  0  0  0  0  0  0  0  0  0  0
    9.4932   15.3911   21.5879 C   0  0  0  0  0  0  0  0  0  0  0  0
  1  2  3  0
  2  3  1  0
  3  4  1  0
  4  5  1  0
  5  6  2  0
  5  7  1  0
  7  8  1  6
  7  9  1  0
  9 10  1  0
  7 11  1  0
 11 12  1  0
 12 13  1  0
 13 14  1  0
 14 15  1  0
 15 16  1  0
 16 11  1  0
M  END
>  <ref_pdb>  (670) 
A3557a

>  <subsites>  (670) 
1 - Active Site

>  <HIPPO Compound ID>  (670) 
6051

>  <energy_score>  (670) 
-31.834174

>  <fragmenstein_mode>  (670) 
expansion

>  <scratch_subdir>  (670) 
/opt/xchem-fragalysis-2/maxwin/BulkDock/SCRATCH/512202/C2414-P217

>  <smiles>  (670) 
C#CCCC(=O)[C@@](C)(CC)N1CCCCC1

>  <alias>  (670) 
C2414-P217

>  <ref_mols>  (670) 
A3557a,A1779a

>  <inspiration_score>  (670) 
None

>  <tags>  (670) 
BulkDock Fragalysis export,fragmenstein_placed,openbind_a71ev2a_c1_knitwork_impure,openbind_a71ev2a_c1_scaffolds

>  <fragmenstein_outcome>  (670) 
acceptable

>  <fragmenstein_error>  (670) 


>  <distance_score>  (670) 
0.856986

>  <inchikey>  (670) 
YDZVKAFTNJTLSL-UHFFFAOYSA-N

>  <name>  (670) 
C2414-P217

>  <HIPPO Pose ID>  (670) 
385246

>  <Energy>  (670) 
54.521801

>  <exports>  (670) 
['/opt/xchem-fragalysis-2/maxwin/BulkDock/OUTPUTS/openbind_a71ev2a_c1_knitwork_impure_165VXJF.sdf', '/opt/xchem-fragalysis-2/maxwin/BulkDock/OUTPUTS/openbind_a71ev2a_c1_knitwork_impure_1B07QS4.sdf', '/opt/xchem-fragalysis-2/maxwin/BulkDock/OUTPUTS/openbind_a71ev2a_c1_knitwork_impure_1B07X5R.sdf', '/opt/xchem-fragalysis-2/maxwin/openbind-hippo/a71ev2a/openbind_a71ev2a_c1_scaffold_products.sdf', '/opt/xchem-fragalysis-2/maxwin/openbind-hippo/a71ev2a/cycle_01/bulkdock/openbind_a71ev2a_c1_scaffold_products.sdf', '/opt/xchem-fragalysis-2/maxwin/openbind-hippo/a71ev2a/cycle_01/bulkdock/openbind_a71ev2a_c1_scaffolds.sdf']

>  <fragmenstein_runtime>  (670) 
7.522666

$$$$
C15025-P229
     RDKit          3D

 12 12  0  0  0  0  0  0  0  0999 V2000
   11.2527   13.9257   22.7452 C   0  0  0  0  0  0  0  0  0  0  0  0
    9.7810   14.1935   22.5044 C   0  0  0  0  0  0  0  0  0  0  0  0
    8.8563   13.2641   23.2254 N   0  0  0  0  0  0  0  0  0  0  0  0
    8.9961   13.2476   24.9083 S   0  0  0  0  0  0  0  0  0  0  0  0
    8.4268   14.4972   25.3632 O   0  0  0  0  0  0  0  0  0  0  0  0
   10.3283   12.8425   25.2876 O   0  0  0  0  0  0  0  0  0  0  0  0
    7.9125   11.9584   25.3997 C   0  0  0  0  0  0  0  0  0  0  0  0
    6.8248   12.2251   26.2298 C   0  0  0  0  0  0  0  0  0  0  0  0
    6.0393   11.1688   26.6740 C   0  0  0  0  0  0  0  0  0  0  0  0
    6.3760    9.8899   26.2695 C   0  0  0  0  0  0  0  0  0  0  0  0
    7.4301    9.6065   25.4699 N   0  0  0  0  0  0  0  0  0  0  0  0
    8.1863   10.6515   25.0460 C   0  0  0  0  0  0  0  0  0  0  0  0
  1  2  1  0
  2  3  1  0
  3  4  1  0
  4  5  2  0
  4  6  2  0
  4  7  1  0
  7  8  2  0
  8  9  1  0
  9 10  2  0
 10 11  1  0
 11 12  2  0
 12  7  1  0
M  END
>  <ref_pdb>  (671) 
A3869a

>  <subsites>  (671) 
1 - Active Site

>  <HIPPO Compound ID>  (671) 
8437

>  <energy_score>  (671) 
-16.716012

>  <fragmenstein_mode>  (671) 
expansion

>  <scratch_subdir>  (671) 
/opt/xchem-fragalysis-2/maxwin/BulkDock/SCRATCH/512202/C15025-P229

>  <smiles>  (671) 
CCNS(=O)(=O)c1cccnc1

>  <alias>  (671) 
C15025-P229

>  <ref_mols>  (671) 
A0719a,A3869a

>  <inspiration_score>  (671) 
None

>  <tags>  (671) 
BulkDock Fragalysis export,fragmenstein_placed,openbind_a71ev2a_c1_knitwork_impure,openbind_a71ev2a_c1_scaffolds

>  <fragmenstein_outcome>  (671) 
acceptable

>  <fragmenstein_error>  (671) 


>  <distance_score>  (671) 
0.768369

>  <inchikey>  (671) 
HNEOZDURNOEMOY-UHFFFAOYSA-N

>  <name>  (671) 
C15025-P229

>  <HIPPO Pose ID>  (671) 
385460

>  <Energy>  (671) 
-48.469683

>  <exports>  (671) 
['/opt/xchem-fragalysis-2/maxwin/BulkDock/OUTPUTS/openbind_a71ev2a_c1_knitwork_impure_165VXJF.sdf', '/opt/xchem-fragalysis-2/maxwin/BulkDock/OUTPUTS/openbind_a71ev2a_c1_knitwork_impure_1B07QS4.sdf', '/opt/xchem-fragalysis-2/maxwin/BulkDock/OUTPUTS/openbind_a71ev2a_c1_knitwork_impure_1B07X5R.sdf', '/opt/xchem-fragalysis-2/maxwin/openbind-hippo/a71ev2a/openbind_a71ev2a_c1_scaffold_products.sdf', '/opt/xchem-fragalysis-2/maxwin/openbind-hippo/a71ev2a/cycle_01/bulkdock/openbind_a71ev2a_c1_scaffold_products.sdf', '/opt/xchem-fragalysis-2/maxwin/openbind-hippo/a71ev2a/cycle_01/bulkdock/openbind_a71ev2a_c1_scaffolds.sdf']

>  <fragmenstein_runtime>  (671) 
1.228217

$$$$
C15027-P229
     RDKit          3D

 13 13  0  0  0  0  0  0  0  0999 V2000
   11.9602   15.1611   23.1680 C   0  0  0  0  0  0  0  0  0  0  0  0
   11.3934   13.9805   23.4366 C   0  0  0  0  0  0  0  0  0  0  0  0
   10.3018   13.3807   22.6088 C   0  0  0  0  0  0  0  0  0  0  0  0
    8.9110   13.3846   23.2220 C   0  0  0  0  0  0  0  0  0  0  0  0
    7.9064   13.3684   22.4950 O   0  0  0  0  0  0  0  0  0  0  0  0
    8.7550   13.2552   24.7395 C   0  0  1  0  0  0  0  0  0  0  0  0
    7.8978   14.3189   25.1635 O   0  0  0  0  0  0  0  0  0  0  0  0
    8.1655   11.9155   25.1302 C   0  0  0  0  0  0  0  0  0  0  0  0
    7.0775   11.8149   26.0071 C   0  0  0  0  0  0  0  0  0  0  0  0
    6.5550   10.5649   26.2882 C   0  0  0  0  0  0  0  0  0  0  0  0
    7.0538    9.4203   25.7812 N   0  0  0  0  0  0  0  0  0  0  0  0
    8.1221    9.5315   24.9631 C   0  0  0  0  0  0  0  0  0  0  0  0
    8.7036   10.7332   24.6146 C   0  0  0  0  0  0  0  0  0  0  0  0
  1  2  2  0
  2  3  1  0
  3  4  1  0
  4  5  2  0
  4  6  1  0
  6  7  1  6
  6  8  1  0
  8  9  2  0
  9 10  1  0
 10 11  2  0
 11 12  1  0
 12 13  2  0
 13  8  1  0
M  END
>  <ref_pdb>  (672) 
A3869a

>  <subsites>  (672) 
1 - Active Site

>  <HIPPO Compound ID>  (672) 
9817

>  <energy_score>  (672) 
-8.083075

>  <fragmenstein_mode>  (672) 
expansion

>  <scratch_subdir>  (672) 
/opt/xchem-fragalysis-2/maxwin/BulkDock/SCRATCH/512202/C15027-P229

>  <smiles>  (672) 
C=CCC(=O)[C@@H](O)c1ccncc1

>  <alias>  (672) 
C15027-P229

>  <ref_mols>  (672) 
A0719a,A3869a

>  <inspiration_score>  (672) 
None

>  <tags>  (672) 
BulkDock Fragalysis export,fragmenstein_placed,openbind_a71ev2a_c1_knitwork_impure,openbind_a71ev2a_c1_scaffolds

>  <fragmenstein_outcome>  (672) 
acceptable

>  <fragmenstein_error>  (672) 


>  <distance_score>  (672) 
0.948363

>  <inchikey>  (672) 
QFOVZMCLJFNOLH-UHFFFAOYSA-N

>  <name>  (672) 
C15027-P229

>  <HIPPO Pose ID>  (672) 
385462

>  <Energy>  (672) 
76.265199

>  <exports>  (672) 
['/opt/xchem-fragalysis-2/maxwin/BulkDock/OUTPUTS/openbind_a71ev2a_c1_knitwork_impure_165VXJF.sdf', '/opt/xchem-fragalysis-2/maxwin/BulkDock/OUTPUTS/openbind_a71ev2a_c1_knitwork_impure_1B07QS4.sdf', '/opt/xchem-fragalysis-2/maxwin/BulkDock/OUTPUTS/openbind_a71ev2a_c1_knitwork_impure_1B07X5R.sdf', '/opt/xchem-fragalysis-2/maxwin/openbind-hippo/a71ev2a/openbind_a71ev2a_c1_scaffold_products.sdf', '/opt/xchem-fragalysis-2/maxwin/openbind-hippo/a71ev2a/cycle_01/bulkdock/openbind_a71ev2a_c1_scaffold_products.sdf', '/opt/xchem-fragalysis-2/maxwin/openbind-hippo/a71ev2a/cycle_01/bulkdock/openbind_a71ev2a_c1_scaffolds.sdf']

>  <fragmenstein_runtime>  (672) 
1.21086

$$$$
C15036-P229
     RDKit          3D

 14 14  0  0  0  0  0  0  0  0999 V2000
   12.4053   16.0823   21.6470 N   0  0  0  0  0  0  0  0  0  0  0  0
   11.9015   15.1913   22.1886 C   0  0  0  0  0  0  0  0  0  0  0  0
   11.1915   14.1154   22.8809 C   0  0  0  0  0  0  0  0  0  0  0  0
    9.6969   14.2417   22.5942 C   0  0  0  0  0  0  0  0  0  0  0  0
    8.8154   13.2187   23.2595 N   0  0  0  0  0  0  0  0  0  0  0  0
    8.9562   13.1494   24.9419 S   0  0  0  0  0  0  0  0  0  0  0  0
   10.2870   12.7012   25.2729 O   0  0  0  0  0  0  0  0  0  0  0  0
    8.4399   14.4082   25.4300 O   0  0  0  0  0  0  0  0  0  0  0  0
    7.8490   11.8839   25.4212 C   0  0  0  0  0  0  0  0  0  0  0  0
    6.7626   12.1701   26.2460 C   0  0  0  0  0  0  0  0  0  0  0  0
    5.9650   11.1263   26.6965 C   0  0  0  0  0  0  0  0  0  0  0  0
    6.2885    9.8412   26.3019 C   0  0  0  0  0  0  0  0  0  0  0  0
    7.3418    9.5400   25.5074 N   0  0  0  0  0  0  0  0  0  0  0  0
    8.1125   10.5716   25.0812 C   0  0  0  0  0  0  0  0  0  0  0  0
  1  2  3  0
  2  3  1  0
  3  4  1  0
  4  5  1  0
  5  6  1  0
  6  7  2  0
  6  8  2  0
  6  9  1  0
  9 10  2  0
 10 11  1  0
 11 12  2  0
 12 13  1  0
 13 14  2  0
 14  9  1  0
M  END
>  <ref_pdb>  (673) 
A3869a

>  <subsites>  (673) 
1 - Active Site

>  <HIPPO Compound ID>  (673) 
4710

>  <energy_score>  (673) 
-26.120469

>  <fragmenstein_mode>  (673) 
expansion

>  <scratch_subdir>  (673) 
/opt/xchem-fragalysis-2/maxwin/BulkDock/SCRATCH/512202/C15036-P229

>  <smiles>  (673) 
N#CCCNS(=O)(=O)c1cccnc1

>  <alias>  (673) 
C15036-P229

>  <ref_mols>  (673) 
A0719a,A3869a

>  <inspiration_score>  (673) 
None

>  <tags>  (673) 
BulkDock Fragalysis export,fragmenstein_placed,openbind_a71ev2a_c1_knitwork_impure,openbind_a71ev2a_c1_scaffolds

>  <fragmenstein_outcome>  (673) 
acceptable

>  <fragmenstein_error>  (673) 


>  <distance_score>  (673) 
0.737327

>  <inchikey>  (673) 
SUDOFTVBCPEFQK-UHFFFAOYSA-N

>  <name>  (673) 
C15036-P229

>  <HIPPO Pose ID>  (673) 
385470

>  <Energy>  (673) 
-46.10453

>  <exports>  (673) 
['/opt/xchem-fragalysis-2/maxwin/BulkDock/OUTPUTS/openbind_a71ev2a_c1_knitwork_impure_165VXJF.sdf', '/opt/xchem-fragalysis-2/maxwin/BulkDock/OUTPUTS/openbind_a71ev2a_c1_knitwork_impure_1B07QS4.sdf', '/opt/xchem-fragalysis-2/maxwin/BulkDock/OUTPUTS/openbind_a71ev2a_c1_knitwork_impure_1B07X5R.sdf', '/opt/xchem-fragalysis-2/maxwin/openbind-hippo/a71ev2a/openbind_a71ev2a_c1_scaffold_products.sdf', '/opt/xchem-fragalysis-2/maxwin/openbind-hippo/a71ev2a/cycle_01/bulkdock/openbind_a71ev2a_c1_scaffold_products.sdf', '/opt/xchem-fragalysis-2/maxwin/openbind-hippo/a71ev2a/cycle_01/bulkdock/openbind_a71ev2a_c1_scaffolds.sdf']

>  <fragmenstein_runtime>  (673) 
2.359945

$$$$
C15048-P229
     RDKit          3D

 16 16  0  0  0  0  0  0  0  0999 V2000
    6.3762   15.0106   27.1569 C   0  0  0  0  0  0  0  0  0  0  0  0
    7.7517   14.4871   26.7449 C   0  0  0  0  0  0  0  0  0  0  0  0
    7.8674   13.7591   25.3746 C   0  0  2  0  0  0  0  0  0  0  0  0
    6.9859   14.4415   24.4063 N   0  0  0  0  0  0  0  0  0  0  0  0
    7.4486   14.4119   22.7919 S   0  0  0  0  0  0  0  0  0  0  0  0
    8.5729   15.3087   22.6898 O   0  0  0  0  0  0  0  0  0  0  0  0
    7.5029   13.0604   22.3046 O   0  0  0  0  0  0  0  0  0  0  0  0
    6.1010   15.1589   22.1462 N   0  0  0  0  0  0  0  0  0  0  0  0
    5.8084   16.4775   22.6950 C   0  0  0  0  0  0  0  0  0  0  0  0
    4.8905   14.3478   21.9501 C   0  0  0  0  0  0  0  0  0  0  0  0
    7.6623   12.2544   25.4624 C   0  0  0  0  0  0  0  0  0  0  0  0
    6.6367   11.6422   26.1910 C   0  0  0  0  0  0  0  0  0  0  0  0
    6.5475   10.2567   26.2050 C   0  0  0  0  0  0  0  0  0  0  0  0
    7.3946    9.4442   25.5460 N   0  0  0  0  0  0  0  0  0  0  0  0
    8.3607   10.0410   24.8169 C   0  0  0  0  0  0  0  0  0  0  0  0
    8.5350   11.4143   24.7552 C   0  0  0  0  0  0  0  0  0  0  0  0
  1  2  1  0
  3  2  1  1
  3  4  1  0
  4  5  1  0
  5  6  2  0
  5  7  2  0
  5  8  1  0
  8  9  1  0
  8 10  1  0
  3 11  1  0
 11 12  2  0
 12 13  1  0
 13 14  2  0
 14 15  1  0
 15 16  2  0
 16 11  1  0
M  END
>  <ref_pdb>  (674) 
A3869a

>  <subsites>  (674) 
1 - Active Site

>  <HIPPO Compound ID>  (674) 
3516

>  <energy_score>  (674) 
-29.59201

>  <fragmenstein_mode>  (674) 
expansion

>  <scratch_subdir>  (674) 
/opt/xchem-fragalysis-2/maxwin/BulkDock/SCRATCH/512202/C15048-P229

>  <smiles>  (674) 
CC[C@H](NS(=O)(=O)N(C)C)c1ccncc1

>  <alias>  (674) 
C15048-P229

>  <ref_mols>  (674) 
A0719a,A3869a

>  <inspiration_score>  (674) 
None

>  <tags>  (674) 
BulkDock Fragalysis export,fragmenstein_placed,openbind_a71ev2a_c1_knitwork_impure,openbind_a71ev2a_c1_scaffolds

>  <fragmenstein_outcome>  (674) 
acceptable

>  <fragmenstein_error>  (674) 


>  <distance_score>  (674) 
0.804684

>  <inchikey>  (674) 
FIHUVLYGVBEHSM-UHFFFAOYSA-N

>  <name>  (674) 
C15048-P229

>  <HIPPO Pose ID>  (674) 
385478

>  <Energy>  (674) 
-167.955654

>  <exports>  (674) 
['/opt/xchem-fragalysis-2/maxwin/BulkDock/OUTPUTS/openbind_a71ev2a_c1_knitwork_impure_165VXJF.sdf', '/opt/xchem-fragalysis-2/maxwin/BulkDock/OUTPUTS/openbind_a71ev2a_c1_knitwork_impure_1B07QS4.sdf', '/opt/xchem-fragalysis-2/maxwin/BulkDock/OUTPUTS/openbind_a71ev2a_c1_knitwork_impure_1B07X5R.sdf', '/opt/xchem-fragalysis-2/maxwin/openbind-hippo/a71ev2a/openbind_a71ev2a_c1_scaffold_products.sdf', '/opt/xchem-fragalysis-2/maxwin/openbind-hippo/a71ev2a/cycle_01/bulkdock/openbind_a71ev2a_c1_scaffold_products.sdf', '/opt/xchem-fragalysis-2/maxwin/openbind-hippo/a71ev2a/cycle_01/bulkdock/openbind_a71ev2a_c1_scaffolds.sdf']

>  <fragmenstein_runtime>  (674) 
9.927849

$$$$
C15067-P229
     RDKit          3D

 15 15  0  0  0  0  0  0  0  0999 V2000
   10.7373   15.8331   20.7906 C   0  0  0  0  0  0  0  0  0  0  0  0
   11.8381   15.4527   21.7725 C   0  0  0  0  0  0  0  0  0  0  0  0
   11.2959   15.2497   23.1889 C   0  0  0  0  0  0  0  0  0  0  0  0
   11.3087   13.8814   23.6147 O   0  0  0  0  0  0  0  0  0  0  0  0
   10.3757   13.0547   22.9410 C   0  0  0  0  0  0  0  0  0  0  0  0
    8.9294   13.0849   23.4202 C   0  0  0  0  0  0  0  0  0  0  0  0
    7.9804   13.0564   22.6276 O   0  0  0  0  0  0  0  0  0  0  0  0
    8.6945   13.1124   24.9220 C   0  0  1  0  0  0  0  0  0  0  0  0
    8.0900   14.3792   25.2057 O   0  0  0  0  0  0  0  0  0  0  0  0
    7.8330   11.9829   25.4421 C   0  0  0  0  0  0  0  0  0  0  0  0
    6.8141   12.2089   26.3769 C   0  0  0  0  0  0  0  0  0  0  0  0
    6.0460   11.1529   26.8529 C   0  0  0  0  0  0  0  0  0  0  0  0
    6.3334    9.8832   26.3979 C   0  0  0  0  0  0  0  0  0  0  0  0
    7.3317    9.6083   25.5340 N   0  0  0  0  0  0  0  0  0  0  0  0
    8.0519   10.6585   25.0704 C   0  0  0  0  0  0  0  0  0  0  0  0
  1  2  1  0
  2  3  1  0
  3  4  1  0
  4  5  1  0
  5  6  1  0
  6  7  2  0
  6  8  1  0
  8  9  1  6
  8 10  1  0
 10 11  2  0
 11 12  1  0
 12 13  2  0
 13 14  1  0
 14 15  2  0
 15 10  1  0
M  END
>  <ref_pdb>  (675) 
A3869a

>  <subsites>  (675) 
1 - Active Site

>  <HIPPO Compound ID>  (675) 
22809

>  <energy_score>  (675) 
-21.024412

>  <fragmenstein_mode>  (675) 
expansion

>  <scratch_subdir>  (675) 
/opt/xchem-fragalysis-2/maxwin/BulkDock/SCRATCH/512202/C15067-P229

>  <smiles>  (675) 
CCCOCC(=O)[C@@H](O)c1cccnc1

>  <alias>  (675) 
C15067-P229

>  <ref_mols>  (675) 
A0719a,A3869a

>  <inspiration_score>  (675) 
None

>  <tags>  (675) 
BulkDock Fragalysis export,fragmenstein_placed,openbind_a71ev2a_c1_knitwork_impure,openbind_a71ev2a_c1_scaffolds

>  <fragmenstein_outcome>  (675) 
acceptable

>  <fragmenstein_error>  (675) 


>  <distance_score>  (675) 
0.873744

>  <inchikey>  (675) 
LDZSMRRPHYMGJB-UHFFFAOYSA-N

>  <name>  (675) 
C15067-P229

>  <HIPPO Pose ID>  (675) 
385495

>  <Energy>  (675) 
75.095025

>  <exports>  (675) 
['/opt/xchem-fragalysis-2/maxwin/BulkDock/OUTPUTS/openbind_a71ev2a_c1_knitwork_impure_165VXJF.sdf', '/opt/xchem-fragalysis-2/maxwin/BulkDock/OUTPUTS/openbind_a71ev2a_c1_knitwork_impure_1B07QS4.sdf', '/opt/xchem-fragalysis-2/maxwin/BulkDock/OUTPUTS/openbind_a71ev2a_c1_knitwork_impure_1B07X5R.sdf', '/opt/xchem-fragalysis-2/maxwin/openbind-hippo/a71ev2a/openbind_a71ev2a_c1_scaffold_products.sdf', '/opt/xchem-fragalysis-2/maxwin/openbind-hippo/a71ev2a/cycle_01/bulkdock/openbind_a71ev2a_c1_scaffold_products.sdf', '/opt/xchem-fragalysis-2/maxwin/openbind-hippo/a71ev2a/cycle_01/bulkdock/openbind_a71ev2a_c1_scaffolds.sdf']

>  <fragmenstein_runtime>  (675) 
1.902258

$$$$
C8146-P229
     RDKit          3D

 18 18  0  0  0  0  0  0  0  0999 V2000
   11.6283   15.0885   22.7386 C   0  0  0  0  0  0  0  0  0  0  0  0
   10.9968   15.5697   21.4418 C   0  0  0  0  0  0  0  0  0  0  0  0
    9.5826   15.0149   21.1735 C   0  0  0  0  0  0  0  0  0  0  0  0
    8.5800   15.3616   22.2394 N   0  0  0  0  0  0  0  0  0  0  0  0
    8.2396   16.8026   22.2299 C   0  0  0  0  0  0  0  0  0  0  0  0
    7.4886   17.1897   23.4865 C   0  0  0  0  0  0  0  0  0  0  0  0
    7.1907   14.3962   22.3619 S   0  0  0  0  0  0  0  0  0  0  0  0
    7.4645   13.0526   21.9398 O   0  0  0  0  0  0  0  0  0  0  0  0
    6.0264   15.0669   21.8353 O   0  0  0  0  0  0  0  0  0  0  0  0
    7.0137   14.3059   24.0223 N   0  0  0  0  0  0  0  0  0  0  0  0
    8.1660   14.0705   24.9241 C   0  0  1  0  0  0  0  0  0  0  0  0
    7.7297   14.5989   26.3041 C   0  0  0  0  0  0  0  0  0  0  0  0
    8.6377   12.5990   25.0396 C   0  0  0  0  0  0  0  0  0  0  0  0
    7.4967   11.6408   25.3629 C   0  0  0  0  0  0  0  0  0  0  0  0
    7.9025   10.1894   25.2964 C   0  0  0  0  0  0  0  0  0  0  0  0
    8.4574    9.8640   24.0082 N   0  0  0  0  0  0  0  0  0  0  0  0
    9.6355   10.6248   23.6574 C   0  0  0  0  0  0  0  0  0  0  0  0
    9.5685   12.1302   23.9096 C   0  0  0  0  0  0  0  0  0  0  0  0
  1  2  1  0
  2  3  1  0
  3  4  1  0
  4  5  1  0
  5  6  1  0
  4  7  1  0
  7  8  2  0
  7  9  2  0
  7 10  1  0
 10 11  1  0
 11 12  1  1
 11 13  1  0
 13 14  1  0
 14 15  1  0
 15 16  1  0
 16 17  1  0
 17 18  1  0
 18 13  1  0
M  END
>  <ref_pdb>  (676) 
A3869a

>  <subsites>  (676) 
1 - Active Site

>  <HIPPO Compound ID>  (676) 
36659

>  <energy_score>  (676) 
-49.117375

>  <fragmenstein_mode>  (676) 
expansion

>  <scratch_subdir>  (676) 
/opt/xchem-fragalysis-2/maxwin/BulkDock/SCRATCH/512202/C8146-P229

>  <smiles>  (676) 
CCCN(CC)S(=O)(=O)N[C@@H](C)C1CCNCC1

>  <alias>  (676) 
C8146-P229

>  <ref_mols>  (676) 
A0719a,A3869a

>  <inspiration_score>  (676) 
None

>  <tags>  (676) 
BulkDock Fragalysis export,fragmenstein_placed,openbind_a71ev2a_c1_knitwork_impure,openbind_a71ev2a_c1_scaffolds

>  <fragmenstein_outcome>  (676) 
acceptable

>  <fragmenstein_error>  (676) 


>  <distance_score>  (676) 
0.972308

>  <inchikey>  (676) 
BMGQAPYAWGCTSL-UHFFFAOYSA-N

>  <name>  (676) 
C8146-P229

>  <HIPPO Pose ID>  (676) 
385512

>  <Energy>  (676) 
-161.877327

>  <exports>  (676) 
['/opt/xchem-fragalysis-2/maxwin/BulkDock/OUTPUTS/openbind_a71ev2a_c1_knitwork_impure_165VXJF.sdf', '/opt/xchem-fragalysis-2/maxwin/BulkDock/OUTPUTS/openbind_a71ev2a_c1_knitwork_impure_1B07QS4.sdf', '/opt/xchem-fragalysis-2/maxwin/BulkDock/OUTPUTS/openbind_a71ev2a_c1_knitwork_impure_1B07X5R.sdf', '/opt/xchem-fragalysis-2/maxwin/openbind-hippo/a71ev2a/openbind_a71ev2a_c1_scaffold_products.sdf', '/opt/xchem-fragalysis-2/maxwin/openbind-hippo/a71ev2a/cycle_01/bulkdock/openbind_a71ev2a_c1_scaffold_products.sdf', '/opt/xchem-fragalysis-2/maxwin/openbind-hippo/a71ev2a/cycle_01/bulkdock/openbind_a71ev2a_c1_scaffolds.sdf']

>  <fragmenstein_runtime>  (676) 
35.250624

$$$$
C8163-P229
     RDKit          3D

 15 15  0  0  0  0  0  0  0  0999 V2000
   11.0353   15.9027   20.1756 C   0  0  0  0  0  0  0  0  0  0  0  0
   11.5449   15.7177   21.2462 C   0  0  0  0  0  0  0  0  0  0  0  0
   12.0486   15.4161   22.5917 C   0  0  0  0  0  0  0  0  0  0  0  0
   11.4398   14.1027   23.0806 C   0  0  0  0  0  0  0  0  0  0  0  0
    9.9726   14.2733   23.1942 N   0  0  0  0  0  0  0  0  0  0  0  0
    9.0608   12.9010   23.4454 S   0  0  0  0  0  0  0  0  0  0  0  0
    7.9118   13.0126   22.5741 O   0  0  0  0  0  0  0  0  0  0  0  0
    9.9230   11.7426   23.4428 O   0  0  0  0  0  0  0  0  0  0  0  0
    8.5071   13.1703   25.1128 C   0  0  0  0  0  0  0  0  0  0  0  0
    7.4386   12.1484   25.5022 C   0  0  2  0  0  0  0  0  0  0  0  0
    6.8434   12.4464   26.8756 C   0  0  0  0  0  0  0  0  0  0  0  0
    5.8349   11.3879   27.3227 C   0  0  0  0  0  0  0  0  0  0  0  0
    5.9359   10.0704   26.5660 C   0  0  0  0  0  0  0  0  0  0  0  0
    7.3075    9.7485   26.2443 N   0  0  0  0  0  0  0  0  0  0  0  0
    7.9553   10.7106   25.3733 C   0  0  0  0  0  0  0  0  0  0  0  0
  1  2  3  0
  2  3  1  0
  3  4  1  0
  4  5  1  0
  5  6  1  0
  6  7  2  0
  6  8  2  0
  6  9  1  0
 10  9  1  1
 10 11  1  0
 11 12  1  0
 12 13  1  0
 13 14  1  0
 14 15  1  0
 15 10  1  0
M  END
>  <ref_pdb>  (677) 
A3869a

>  <subsites>  (677) 
1 - Active Site

>  <HIPPO Compound ID>  (677) 
2378

>  <energy_score>  (677) 
-56.504397

>  <fragmenstein_mode>  (677) 
expansion

>  <scratch_subdir>  (677) 
/opt/xchem-fragalysis-2/maxwin/BulkDock/SCRATCH/512202/C8163-P229

>  <smiles>  (677) 
C#CCCNS(=O)(=O)C[C@@H]1CCCNC1

>  <alias>  (677) 
C8163-P229

>  <ref_mols>  (677) 
A0719a,A3869a

>  <inspiration_score>  (677) 
None

>  <tags>  (677) 
BulkDock Fragalysis export,fragmenstein_placed,openbind_a71ev2a_c1_knitwork_impure,openbind_a71ev2a_c1_scaffolds

>  <fragmenstein_outcome>  (677) 
acceptable

>  <fragmenstein_error>  (677) 


>  <distance_score>  (677) 
0.988497

>  <inchikey>  (677) 
ZWZHRYGYRLXIEQ-UHFFFAOYSA-N

>  <name>  (677) 
C8163-P229

>  <HIPPO Pose ID>  (677) 
385523

>  <Energy>  (677) 
-57.441451

>  <exports>  (677) 
['/opt/xchem-fragalysis-2/maxwin/BulkDock/OUTPUTS/openbind_a71ev2a_c1_knitwork_impure_165VXJF.sdf', '/opt/xchem-fragalysis-2/maxwin/BulkDock/OUTPUTS/openbind_a71ev2a_c1_knitwork_impure_1B07QS4.sdf', '/opt/xchem-fragalysis-2/maxwin/BulkDock/OUTPUTS/openbind_a71ev2a_c1_knitwork_impure_1B07X5R.sdf', '/opt/xchem-fragalysis-2/maxwin/openbind-hippo/a71ev2a/openbind_a71ev2a_c1_scaffold_products.sdf', '/opt/xchem-fragalysis-2/maxwin/openbind-hippo/a71ev2a/cycle_01/bulkdock/openbind_a71ev2a_c1_scaffold_products.sdf', '/opt/xchem-fragalysis-2/maxwin/openbind-hippo/a71ev2a/cycle_01/bulkdock/openbind_a71ev2a_c1_scaffolds.sdf']

>  <fragmenstein_runtime>  (677) 
1.71938

$$$$
C8176-P229
     RDKit          3D

 15 15  0  0  0  0  0  0  0  0999 V2000
    8.1528   14.7710   25.3336 C   0  0  0  0  0  0  0  0  0  0  0  0
    8.6524   13.4019   24.8557 C   0  0  2  0  0  0  0  0  0  0  0  0
    9.8854   13.1456   25.5230 O   0  0  0  0  0  0  0  0  0  0  0  0
    8.8021   13.4627   23.3066 C   0  0  0  0  0  0  0  0  0  0  0  0
    7.9381   12.9784   22.5628 O   0  0  0  0  0  0  0  0  0  0  0  0
    9.9866   14.2393   22.7560 C   0  0  0  0  0  0  0  0  0  0  0  0
   11.0082   14.3747   23.6522 F   0  0  0  0  0  0  0  0  0  0  0  0
   10.5201   13.6832   21.6474 F   0  0  0  0  0  0  0  0  0  0  0  0
    9.3190   15.9947   22.2717 Br  0  0  0  0  0  0  0  0  0  0  0  0
    7.6335   12.2675   25.2328 C   0  0  2  0  0  0  0  0  0  0  0  0
    7.0003   12.4050   26.6256 C   0  0  0  0  0  0  0  0  0  0  0  0
    6.1259   11.2255   27.0411 C   0  0  0  0  0  0  0  0  0  0  0  0
    6.3462    9.9588   26.2353 C   0  0  0  0  0  0  0  0  0  0  0  0
    7.7237    9.7939   25.8307 N   0  0  0  0  0  0  0  0  0  0  0  0
    8.2318   10.8689   24.9876 C   0  0  0  0  0  0  0  0  0  0  0  0
  2  1  1  1
  2  3  1  0
  2  4  1  0
  4  5  2  0
  4  6  1  0
  6  7  1  0
  6  8  1  0
  6  9  1  0
  2 10  1  0
 10 11  1  1
 11 12  1  0
 12 13  1  0
 13 14  1  0
 14 15  1  0
 15 10  1  0
M  END
>  <ref_pdb>  (678) 
A3869a

>  <subsites>  (678) 
1 - Active Site

>  <HIPPO Compound ID>  (678) 
12945

>  <energy_score>  (678) 
-22.998993

>  <fragmenstein_mode>  (678) 
expansion

>  <scratch_subdir>  (678) 
/opt/xchem-fragalysis-2/maxwin/BulkDock/SCRATCH/512202/C8176-P229

>  <smiles>  (678) 
C[C@](O)(C(=O)C(F)(F)Br)[C@@H]1CCCNC1

>  <alias>  (678) 
C8176-P229

>  <ref_mols>  (678) 
A0719a,A3869a

>  <inspiration_score>  (678) 
None

>  <tags>  (678) 
BulkDock Fragalysis export,fragmenstein_placed,openbind_a71ev2a_c1_knitwork_impure,openbind_a71ev2a_c1_scaffolds

>  <fragmenstein_outcome>  (678) 
acceptable

>  <fragmenstein_error>  (678) 


>  <distance_score>  (678) 
0.855497

>  <inchikey>  (678) 
ZIPKJCBHPHJSDG-UHFFFAOYSA-N

>  <name>  (678) 
C8176-P229

>  <HIPPO Pose ID>  (678) 
385534

>  <Energy>  (678) 
80.384457

>  <exports>  (678) 
['/opt/xchem-fragalysis-2/maxwin/BulkDock/OUTPUTS/openbind_a71ev2a_c1_knitwork_impure_165VXJF.sdf', '/opt/xchem-fragalysis-2/maxwin/BulkDock/OUTPUTS/openbind_a71ev2a_c1_knitwork_impure_1B07QS4.sdf', '/opt/xchem-fragalysis-2/maxwin/BulkDock/OUTPUTS/openbind_a71ev2a_c1_knitwork_impure_1B07X5R.sdf', '/opt/xchem-fragalysis-2/maxwin/openbind-hippo/a71ev2a/openbind_a71ev2a_c1_scaffold_products.sdf', '/opt/xchem-fragalysis-2/maxwin/openbind-hippo/a71ev2a/cycle_01/bulkdock/openbind_a71ev2a_c1_scaffold_products.sdf', '/opt/xchem-fragalysis-2/maxwin/openbind-hippo/a71ev2a/cycle_01/bulkdock/openbind_a71ev2a_c1_scaffolds.sdf']

>  <fragmenstein_runtime>  (678) 
1.182309

$$$$
C34425-P31
     RDKit          3D

 24 26  0  0  0  0  0  0  0  0999 V2000
    8.2570   12.4238   -1.9695 C   0  0  0  0  0  0  0  0  0  0  0  0
    7.8451   12.1318   -0.5282 C   0  0  1  0  0  0  0  0  0  0  0  0
    8.1944   10.7015   -0.1197 C   0  0  0  0  0  0  0  0  0  0  0  0
    7.5536   10.3896    1.2265 C   0  0  0  0  0  0  0  0  0  0  0  0
    7.6274   11.5418    2.1952 C   0  0  0  0  0  0  0  0  0  0  0  0
    7.2224   11.3181    3.5208 C   0  0  0  0  0  0  0  0  0  0  0  0
    7.2392   12.3487    4.4557 C   0  0  0  0  0  0  0  0  0  0  0  0
    7.6561   13.6159    4.0725 C   0  0  0  0  0  0  0  0  0  0  0  0
    8.0503   13.8484    2.7517 C   0  0  0  0  0  0  0  0  0  0  0  0
    8.0414   12.8247    1.7888 C   0  0  0  0  0  0  0  0  0  0  0  0
    8.3904   13.0934    0.4508 N   0  0  0  0  0  0  0  0  0  0  0  0
    9.6972   13.7391    0.2437 C   0  0  0  0  0  0  0  0  0  0  0  0
   10.8828   12.7706    0.3490 C   0  0  0  0  0  0  0  0  0  0  0  0
   12.1451   13.4615    0.2761 N   0  0  0  0  0  0  0  0  0  0  0  0
   12.8303   14.4158    1.2880 C   0  0  0  0  0  0  0  0  0  0  0  0
   12.4432   14.8491    2.3013 O   0  0  0  0  0  0  0  0  0  0  0  0
   14.1628   14.8056    0.6377 C   0  0  0  0  0  0  0  0  0  0  0  0
   14.9317   13.6955    0.2011 O   0  0  0  0  0  0  0  0  0  0  0  0
   15.7272   13.0480    1.2024 C   0  0  0  0  0  0  0  0  0  0  0  0
   16.6658   14.0052    1.9437 C   0  0  0  0  0  0  0  0  0  0  0  0
   17.6672   13.2468    2.7940 C   0  0  0  0  0  0  0  0  0  0  0  0
   18.4093   12.3213    2.0090 O   0  0  0  0  0  0  0  0  0  0  0  0
   17.5748   11.3409    1.3904 C   0  0  0  0  0  0  0  0  0  0  0  0
   16.5522   11.9850    0.4727 C   0  0  0  0  0  0  0  0  0  0  0  0
  2  1  1  6
  2  3  1  0
  3  4  1  0
  4  5  1  0
  5  6  2  0
  6  7  1  0
  7  8  2  0
  8  9  1  0
  9 10  2  0
 10 11  1  0
 11 12  1  0
 12 13  1  0
 13 14  1  0
 14 15  1  0
 15 16  2  0
 15 17  1  0
 17 18  1  0
 18 19  1  0
 19 20  1  0
 20 21  1  0
 21 22  1  0
 22 23  1  0
 23 24  1  0
 11  2  1  0
 24 19  1  0
 10  5  1  0
M  END
>  <ref_pdb>  (679) 
A0586a

>  <subsites>  (679) 
3 - A0541/A/147/1,6 - A0486/A/147/1

>  <HIPPO Compound ID>  (679) 
34425

>  <energy_score>  (679) 
-26.621136

>  <fragmenstein_mode>  (679) 
expansion

>  <scratch_subdir>  (679) 
/opt/xchem-fragalysis-2/maxwin/BulkDock/SCRATCH/512202/C34425-P31

>  <smiles>  (679) 
C[C@H]1CCc2ccccc2N1CCNC(=O)COC1CCOCC1

>  <alias>  (679) 
C34425-P31

>  <ref_mols>  (679) 
A0608a,A0586a

>  <inspiration_score>  (679) 
None

>  <tags>  (679) 
BulkDock Fragalysis export,fragmenstein_placed,openbind_a71ev2a_c1_knitwork_impure,openbind_a71ev2a_c1_scaffolds

>  <fragmenstein_outcome>  (679) 
acceptable

>  <fragmenstein_error>  (679) 


>  <distance_score>  (679) 
0.621048

>  <inchikey>  (679) 
DKGPPHBODADFID-UHFFFAOYSA-N

>  <name>  (679) 
C34425-P31

>  <HIPPO Pose ID>  (679) 
386422

>  <Energy>  (679) 
76.489712

>  <exports>  (679) 
['/opt/xchem-fragalysis-2/maxwin/BulkDock/OUTPUTS/openbind_a71ev2a_c1_knitwork_impure_165VXJF.sdf', '/opt/xchem-fragalysis-2/maxwin/BulkDock/OUTPUTS/openbind_a71ev2a_c1_knitwork_impure_1B07QS4.sdf', '/opt/xchem-fragalysis-2/maxwin/BulkDock/OUTPUTS/openbind_a71ev2a_c1_knitwork_impure_1B07X5R.sdf', '/opt/xchem-fragalysis-2/maxwin/openbind-hippo/a71ev2a/openbind_a71ev2a_c1_scaffold_products.sdf', '/opt/xchem-fragalysis-2/maxwin/openbind-hippo/a71ev2a/cycle_01/bulkdock/openbind_a71ev2a_c1_scaffold_products.sdf', '/opt/xchem-fragalysis-2/maxwin/openbind-hippo/a71ev2a/cycle_01/bulkdock/openbind_a71ev2a_c1_scaffolds.sdf']

>  <fragmenstein_runtime>  (679) 
3.852288

$$$$
C901-P190
     RDKit          3D

 23 26  0  0  0  0  0  0  0  0999 V2000
   26.3226   16.5777   25.0092 O   0  0  0  0  0  0  0  0  0  0  0  0
   25.3913   17.2766   25.1279 C   0  0  0  0  0  0  0  0  0  0  0  0
   25.3571   18.6976   24.5815 C   0  0  0  0  0  0  0  0  0  0  0  0
   24.4816   18.8434   23.3394 C   0  0  0  0  0  0  0  0  0  0  0  0
   24.9940   19.9574   22.4586 C   0  0  0  0  0  0  0  0  0  0  0  0
   24.3752   21.2245   22.4398 C   0  0  0  0  0  0  0  0  0  0  0  0
   24.8860   22.2569   21.6431 C   0  0  0  0  0  0  0  0  0  0  0  0
   26.0032   21.9927   20.8790 C   0  0  0  0  0  0  0  0  0  0  0  0
   26.6147   20.7645   20.8974 C   0  0  0  0  0  0  0  0  0  0  0  0
   26.1396   19.7336   21.6760 C   0  0  0  0  0  0  0  0  0  0  0  0
   27.7014   20.7094   20.0833 O   0  0  0  0  0  0  0  0  0  0  0  0
   27.6455   22.0136   19.4767 C   0  0  0  0  0  0  0  0  0  0  0  0
   26.6271   22.8671   20.0444 O   0  0  0  0  0  0  0  0  0  0  0  0
   24.0576   17.0556   25.8937 N   0  0  0  0  0  0  0  0  0  0  0  0
   23.5880   15.9636   26.5483 C   0  0  0  0  0  0  0  0  0  0  0  0
   24.2528   14.7332   26.7232 C   0  0  0  0  0  0  0  0  0  0  0  0
   23.3945   13.9705   27.4770 C   0  0  0  0  0  0  0  0  0  0  0  0
   22.2987   14.7565   27.7009 N   0  0  0  0  0  0  0  0  0  0  0  0
   21.1704   14.3134   28.5580 C   0  0  0  0  0  0  0  0  0  0  0  0
   19.9928   15.3100   28.6719 C   0  0  0  0  0  0  0  0  0  0  0  0
   19.3347   14.5948   27.4772 C   0  0  0  0  0  0  0  0  0  0  0  0
   20.2028   13.3658   27.8077 C   0  0  0  0  0  0  0  0  0  0  0  0
   22.3958   15.9802   27.1465 N   0  0  0  0  0  0  0  0  0  0  0  0
  1  2  2  0
  2  3  1  0
  3  4  1  0
  4  5  1  0
  5  6  2  0
  6  7  1  0
  7  8  2  0
  8  9  1  0
  9 10  2  0
  9 11  1  0
 11 12  1  0
 12 13  1  0
  2 14  1  0
 14 15  1  0
 15 16  1  0
 16 17  2  0
 17 18  1  0
 18 19  1  0
 19 20  1  0
 20 21  1  0
 21 22  1  0
 18 23  1  0
 10  5  1  0
 23 15  2  0
 13  8  1  0
 22 19  1  0
M  END
>  <ref_pdb>  (680) 
A3509a

>  <subsites>  (680) 
1 - Active Site,5 - A3181/A/202/1

>  <HIPPO Compound ID>  (680) 
37776

>  <energy_score>  (680) 
-38.528242

>  <fragmenstein_mode>  (680) 
expansion

>  <scratch_subdir>  (680) 
/opt/xchem-fragalysis-2/maxwin/BulkDock/SCRATCH/512202/C901-P190

>  <smiles>  (680) 
O=C(CCc1ccc2c(c1)OCO2)Nc1ccn(C2CCC2)n1

>  <alias>  (680) 
C901-P190

>  <ref_mols>  (680) 
A0351b,A3509a

>  <inspiration_score>  (680) 
None

>  <tags>  (680) 
BulkDock Fragalysis export,fragmenstein_placed,openbind_a71ev2a_c1_knitwork_impure,openbind_a71ev2a_c1_scaffolds

>  <fragmenstein_outcome>  (680) 
acceptable

>  <fragmenstein_error>  (680) 


>  <distance_score>  (680) 
0.986894

>  <inchikey>  (680) 
TXLFUDQYNGTYGY-UHFFFAOYSA-N

>  <name>  (680) 
C901-P190

>  <HIPPO Pose ID>  (680) 
386455

>  <Energy>  (680) 
3.966387

>  <exports>  (680) 
['/opt/xchem-fragalysis-2/maxwin/BulkDock/OUTPUTS/openbind_a71ev2a_c1_knitwork_impure_165VXJF.sdf', '/opt/xchem-fragalysis-2/maxwin/BulkDock/OUTPUTS/openbind_a71ev2a_c1_knitwork_impure_1B07QS4.sdf', '/opt/xchem-fragalysis-2/maxwin/BulkDock/OUTPUTS/openbind_a71ev2a_c1_knitwork_impure_1B07X5R.sdf', '/opt/xchem-fragalysis-2/maxwin/openbind-hippo/a71ev2a/openbind_a71ev2a_c1_scaffold_products.sdf', '/opt/xchem-fragalysis-2/maxwin/openbind-hippo/a71ev2a/cycle_01/bulkdock/openbind_a71ev2a_c1_scaffold_products.sdf', '/opt/xchem-fragalysis-2/maxwin/openbind-hippo/a71ev2a/cycle_01/bulkdock/openbind_a71ev2a_c1_scaffolds.sdf']

>  <fragmenstein_runtime>  (680) 
17.99514

$$$$
C727-P275
     RDKit          3D

 12 13  0  0  0  0  0  0  0  0999 V2000
    7.3676   12.0173   25.3509 C   0  0  0  0  0  0  0  0  0  0  0  0
    8.0207   13.0048   24.6229 C   0  0  0  0  0  0  0  0  0  0  0  0
    9.0542   12.6335   23.7706 C   0  0  0  0  0  0  0  0  0  0  0  0
    9.8224   13.5429   23.0360 N   0  0  0  0  0  0  0  0  0  0  0  0
   10.9491   14.0820   23.8104 C   0  0  0  0  0  0  0  0  0  0  0  0
   11.9707   14.6802   22.8491 C   0  0  0  0  0  0  0  0  0  0  0  0
   11.3438   15.7366   21.9468 C   0  0  0  0  0  0  0  0  0  0  0  0
   10.1040   15.1843   21.2450 C   0  0  0  0  0  0  0  0  0  0  0  0
    9.1200   14.5677   22.2463 C   0  0  0  0  0  0  0  0  0  0  0  0
    9.3576   11.2716   23.6768 C   0  0  0  0  0  0  0  0  0  0  0  0
    8.6487   10.3537   24.4369 C   0  0  0  0  0  0  0  0  0  0  0  0
    7.6699   10.7003   25.2965 N   0  0  0  0  0  0  0  0  0  0  0  0
  1  2  2  0
  2  3  1  0
  3  4  1  0
  4  5  1  0
  5  6  1  0
  6  7  1  0
  7  8  1  0
  8  9  1  0
  3 10  2  0
 10 11  1  0
 11 12  2  0
 12  1  1  0
  9  4  1  0
M  END
>  <ref_pdb>  (681) 
A4031b

>  <subsites>  (681) 
1 - Active Site

>  <HIPPO Compound ID>  (681) 
10783

>  <energy_score>  (681) 
-16.395445

>  <fragmenstein_mode>  (681) 
expansion

>  <scratch_subdir>  (681) 
/opt/xchem-fragalysis-2/maxwin/BulkDock/SCRATCH/512202/C727-P275

>  <smiles>  (681) 
c1cc(N2CCCCC2)ccn1

>  <alias>  (681) 
C727-P275

>  <ref_mols>  (681) 
A3623a,A4031b

>  <inspiration_score>  (681) 
None

>  <tags>  (681) 
BulkDock Fragalysis export,fragmenstein_placed,openbind_a71ev2a_c1_knitwork_impure,openbind_a71ev2a_c1_scaffolds

>  <fragmenstein_outcome>  (681) 
acceptable

>  <fragmenstein_error>  (681) 


>  <distance_score>  (681) 
0.972796

>  <inchikey>  (681) 
DXNJQCFHVKJTJF-UHFFFAOYSA-N

>  <name>  (681) 
C727-P275

>  <HIPPO Pose ID>  (681) 
386787

>  <Energy>  (681) 
13.968412

>  <exports>  (681) 
['/opt/xchem-fragalysis-2/maxwin/BulkDock/OUTPUTS/openbind_a71ev2a_c1_knitwork_impure_165VXJF.sdf', '/opt/xchem-fragalysis-2/maxwin/BulkDock/OUTPUTS/openbind_a71ev2a_c1_knitwork_impure_1B07QS4.sdf', '/opt/xchem-fragalysis-2/maxwin/BulkDock/OUTPUTS/openbind_a71ev2a_c1_knitwork_impure_1B07X5R.sdf', '/opt/xchem-fragalysis-2/maxwin/openbind-hippo/a71ev2a/openbind_a71ev2a_c1_scaffold_products.sdf', '/opt/xchem-fragalysis-2/maxwin/openbind-hippo/a71ev2a/cycle_01/bulkdock/openbind_a71ev2a_c1_scaffold_products.sdf', '/opt/xchem-fragalysis-2/maxwin/openbind-hippo/a71ev2a/cycle_01/bulkdock/openbind_a71ev2a_c1_scaffolds.sdf']

>  <fragmenstein_runtime>  (681) 
3.7862

$$$$
C7480-P437
     RDKit          3D

 13 13  0  0  0  0  0  0  0  0999 V2000
    9.0469    9.2012   23.6005 C   0  0  0  0  0  0  0  0  0  0  0  0
    9.0665   10.5361   24.2717 C   0  0  0  0  0  0  0  0  0  0  0  0
   10.3523   10.9356   24.9299 C   0  0  0  0  0  0  0  0  0  0  0  0
    7.9840   11.3375   24.2710 C   0  0  0  0  0  0  0  0  0  0  0  0
    8.0900   12.7314   24.7782 C   0  0  0  0  0  0  0  0  0  0  0  0
    7.6869   13.0740   25.8185 O   0  0  0  0  0  0  0  0  0  0  0  0
    8.8527   13.5267   23.6817 N   0  0  0  0  0  0  0  0  0  0  0  0
    9.1751   14.8696   23.6077 N   0  0  0  0  0  0  0  0  0  0  0  0
   10.5396   15.1211   24.0846 C   0  0  0  0  0  0  0  0  0  0  0  0
   11.6250   14.6621   23.1094 C   0  0  0  0  0  0  0  0  0  0  0  0
   11.4149   15.2814   21.7357 C   0  0  0  0  0  0  0  0  0  0  0  0
   10.0046   15.0054   21.2316 C   0  0  0  0  0  0  0  0  0  0  0  0
    8.9516   15.4269   22.2614 C   0  0  0  0  0  0  0  0  0  0  0  0
  1  2  1  0
  2  3  1  0
  2  4  2  3
  4  5  1  0
  5  6  2  0
  5  7  1  0
  7  8  1  0
  8  9  1  0
  9 10  1  0
 10 11  1  0
 11 12  1  0
 12 13  1  0
 13  8  1  0
M  END
>  <ref_pdb>  (682) 
A4701a

>  <subsites>  (682) 
1 - Active Site

>  <HIPPO Compound ID>  (682) 
2530

>  <energy_score>  (682) 
-11.498933

>  <fragmenstein_mode>  (682) 
expansion

>  <scratch_subdir>  (682) 
/opt/xchem-fragalysis-2/maxwin/BulkDock/SCRATCH/512202/C7480-P437

>  <smiles>  (682) 
CC(C)=CC(=O)NN1CCCCC1

>  <alias>  (682) 
C7480-P437

>  <ref_mols>  (682) 
A1445a,A4701a

>  <inspiration_score>  (682) 
None

>  <tags>  (682) 
BulkDock Fragalysis export,fragmenstein_placed,openbind_a71ev2a_c1_knitwork_impure,openbind_a71ev2a_c1_scaffolds

>  <fragmenstein_outcome>  (682) 
acceptable

>  <fragmenstein_error>  (682) 


>  <distance_score>  (682) 
0.937331

>  <inchikey>  (682) 
GPGBQKMPCMYFLT-UHFFFAOYSA-N

>  <name>  (682) 
C7480-P437

>  <HIPPO Pose ID>  (682) 
387554

>  <Energy>  (682) 
57.730489

>  <exports>  (682) 
['/opt/xchem-fragalysis-2/maxwin/BulkDock/OUTPUTS/openbind_a71ev2a_c1_knitwork_impure_165VXJF.sdf', '/opt/xchem-fragalysis-2/maxwin/BulkDock/OUTPUTS/openbind_a71ev2a_c1_knitwork_impure_1B07QS4.sdf', '/opt/xchem-fragalysis-2/maxwin/BulkDock/OUTPUTS/openbind_a71ev2a_c1_knitwork_impure_1B07X5R.sdf', '/opt/xchem-fragalysis-2/maxwin/openbind-hippo/a71ev2a/openbind_a71ev2a_c1_scaffold_products.sdf', '/opt/xchem-fragalysis-2/maxwin/openbind-hippo/a71ev2a/cycle_01/bulkdock/openbind_a71ev2a_c1_scaffold_products.sdf', '/opt/xchem-fragalysis-2/maxwin/openbind-hippo/a71ev2a/cycle_01/bulkdock/openbind_a71ev2a_c1_scaffolds.sdf']

>  <fragmenstein_runtime>  (682) 
4.952899

$$$$
C935-P161
     RDKit          3D

 22 25  0  0  0  0  0  0  0  0999 V2000
   21.2229   15.8571    1.4517 C   0  0  0  0  0  0  0  0  0  0  0  0
   22.2180   14.9104    2.1576 C   0  0  0  0  0  0  0  0  0  0  0  0
   23.2954   15.7940    2.7973 C   0  0  0  0  0  0  0  0  0  0  0  0
   21.4032   14.1675    3.2024 C   0  0  0  0  0  0  0  0  0  0  0  0
   22.7666   13.9308    1.1461 C   0  0  0  0  0  0  0  0  0  0  0  0
   22.1266   13.6004    0.0370 N   0  0  0  0  0  0  0  0  0  0  0  0
   22.9224   12.7820   -0.7123 N   0  0  0  0  0  0  0  0  0  0  0  0
   24.0363   12.5976   -0.0475 C   0  0  0  0  0  0  0  0  0  0  0  0
   23.9529   13.2349    1.1656 N   0  0  0  0  0  0  0  0  0  0  0  0
   25.0241   13.2397    2.1404 C   0  0  0  0  0  0  0  0  0  0  0  0
   26.1613   12.2552    1.8167 C   0  0  2  0  0  0  0  0  0  0  0  0
   27.3933   12.6370    2.5583 C   0  0  0  0  0  0  0  0  0  0  0  0
   28.0281   13.7873    2.5698 N   0  0  0  0  0  0  0  0  0  0  0  0
   29.1339   13.4950    3.3361 C   0  0  0  0  0  0  0  0  0  0  0  0
   30.2662   14.5528    3.6355 C   0  0  2  0  0  0  0  0  0  0  0  0
   30.3743   14.9930    5.1051 C   0  0  0  0  0  0  0  0  0  0  0  0
   29.4442   16.1469    4.7064 C   0  0  0  0  0  0  0  0  0  0  0  0
   29.8633   15.9490    3.3008 N   0  0  0  0  0  0  0  0  0  0  0  0
   29.1850   12.2356    3.7867 N   0  0  0  0  0  0  0  0  0  0  0  0
   28.0205   11.6615    3.2735 O   0  0  0  0  0  0  0  0  0  0  0  0
   26.4637   12.2399    0.3085 C   0  0  0  0  0  0  0  0  0  0  0  0
   25.2307   11.8445   -0.4926 C   0  0  0  0  0  0  0  0  0  0  0  0
  1  2  1  0
  2  3  1  0
  2  4  1  0
  2  5  1  0
  5  6  2  0
  6  7  1  0
  7  8  2  0
  8  9  1  0
  9 10  1  0
 10 11  1  0
 11 12  1  1
 12 13  2  0
 13 14  1  0
 15 14  1  1
 15 16  1  0
 16 17  1  0
 17 18  1  0
 14 19  2  0
 19 20  1  0
 11 21  1  0
 21 22  1  0
  9  5  1  0
 20 12  1  0
 22  8  1  0
 18 15  1  0
M  END
>  <ref_pdb>  (683) 
A3229a

>  <subsites>  (683) 
1 - Active Site,6 - A0486/A/147/1

>  <HIPPO Compound ID>  (683) 
29365

>  <energy_score>  (683) 
-56.938217

>  <fragmenstein_mode>  (683) 
expansion

>  <scratch_subdir>  (683) 
/opt/xchem-fragalysis-2/maxwin/BulkDock/SCRATCH/512202/C935-P161

>  <smiles>  (683) 
CC(C)(C)c1nnc2n1C[C@H](c1nc([C@@H]3CCN3)no1)CC2

>  <alias>  (683) 
C935-P161

>  <ref_mols>  (683) 
A3229a,A0239a

>  <inspiration_score>  (683) 
None

>  <tags>  (683) 
BulkDock Fragalysis export,fragmenstein_placed,openbind_a71ev2a_c1_knitwork_impure,openbind_a71ev2a_c1_scaffolds

>  <fragmenstein_outcome>  (683) 
acceptable

>  <fragmenstein_error>  (683) 


>  <distance_score>  (683) 
0.971995

>  <inchikey>  (683) 
VMRRPEUPZRWAAJ-UHFFFAOYSA-N

>  <name>  (683) 
C935-P161

>  <HIPPO Pose ID>  (683) 
387571

>  <Energy>  (683) 
36.58705

>  <exports>  (683) 
['/opt/xchem-fragalysis-2/maxwin/BulkDock/OUTPUTS/openbind_a71ev2a_c1_knitwork_impure_165VXJF.sdf', '/opt/xchem-fragalysis-2/maxwin/BulkDock/OUTPUTS/openbind_a71ev2a_c1_knitwork_impure_1B07QS4.sdf', '/opt/xchem-fragalysis-2/maxwin/BulkDock/OUTPUTS/openbind_a71ev2a_c1_knitwork_impure_1B07X5R.sdf', '/opt/xchem-fragalysis-2/maxwin/openbind-hippo/a71ev2a/openbind_a71ev2a_c1_scaffold_products.sdf', '/opt/xchem-fragalysis-2/maxwin/openbind-hippo/a71ev2a/cycle_01/bulkdock/openbind_a71ev2a_c1_scaffold_products.sdf', '/opt/xchem-fragalysis-2/maxwin/openbind-hippo/a71ev2a/cycle_01/bulkdock/openbind_a71ev2a_c1_scaffolds.sdf']

>  <fragmenstein_runtime>  (683) 
12.806674

$$$$
C15044-P213
     RDKit          3D

 15 15  0  0  0  0  0  0  0  0999 V2000
   10.6025   15.2914   19.5972 N   0  0  0  0  0  0  0  0  0  0  0  0
   11.3501   15.6794   20.3909 C   0  0  0  0  0  0  0  0  0  0  0  0
   12.2037   16.1412   21.4821 C   0  0  0  0  0  0  0  0  0  0  0  0
   12.1317   15.2075   22.6926 C   0  0  0  0  0  0  0  0  0  0  0  0
   10.7618   15.1701   23.3578 C   0  0  0  0  0  0  0  0  0  0  0  0
    9.9222   14.1667   22.6878 N   0  0  0  0  0  0  0  0  0  0  0  0
    8.3978   13.9075   23.3635 S   0  0  0  0  0  0  0  0  0  0  0  0
    8.2212   14.8983   24.4014 O   0  0  0  0  0  0  0  0  0  0  0  0
    7.4972   13.7311   22.2435 O   0  0  0  0  0  0  0  0  0  0  0  0
    8.5038   12.3212   24.1491 C   0  0  0  0  0  0  0  0  0  0  0  0
    9.2161   11.2905   23.5629 C   0  0  0  0  0  0  0  0  0  0  0  0
    8.9337   10.0133   24.0156 C   0  0  0  0  0  0  0  0  0  0  0  0
    7.9625    9.8453   25.0032 C   0  0  0  0  0  0  0  0  0  0  0  0
    7.3581   10.9501   25.5711 C   0  0  0  0  0  0  0  0  0  0  0  0
    7.6306   12.1966   25.1843 N   0  0  0  0  0  0  0  0  0  0  0  0
  1  2  3  0
  2  3  1  0
  3  4  1  0
  4  5  1  0
  5  6  1  0
  6  7  1  0
  7  8  2  0
  7  9  2  0
  7 10  1  0
 10 11  2  0
 11 12  1  0
 12 13  2  0
 13 14  1  0
 14 15  2  0
 15 10  1  0
M  END
>  <ref_pdb>  (684) 
A3548a

>  <subsites>  (684) 
1 - Active Site

>  <HIPPO Compound ID>  (684) 
20158

>  <energy_score>  (684) 
-17.773726

>  <fragmenstein_mode>  (684) 
expansion

>  <scratch_subdir>  (684) 
/opt/xchem-fragalysis-2/maxwin/BulkDock/SCRATCH/512202/C15044-P213

>  <smiles>  (684) 
N#CCCCNS(=O)(=O)c1ccccn1

>  <alias>  (684) 
C15044-P213

>  <ref_mols>  (684) 
A0719a,A3548a

>  <inspiration_score>  (684) 
None

>  <tags>  (684) 
BulkDock Fragalysis export,fragmenstein_placed,openbind_a71ev2a_c1_knitwork_impure,openbind_a71ev2a_c1_scaffolds

>  <fragmenstein_outcome>  (684) 
acceptable

>  <fragmenstein_error>  (684) 


>  <distance_score>  (684) 
0.898393

>  <inchikey>  (684) 
QVJOVVVVXHHADP-UHFFFAOYSA-N

>  <name>  (684) 
C15044-P213

>  <HIPPO Pose ID>  (684) 
387895

>  <Energy>  (684) 
25.594617

>  <exports>  (684) 
['/opt/xchem-fragalysis-2/maxwin/BulkDock/OUTPUTS/openbind_a71ev2a_c1_knitwork_impure_165VXJF.sdf', '/opt/xchem-fragalysis-2/maxwin/BulkDock/OUTPUTS/openbind_a71ev2a_c1_knitwork_impure_1B07QS4.sdf', '/opt/xchem-fragalysis-2/maxwin/BulkDock/OUTPUTS/openbind_a71ev2a_c1_knitwork_impure_1B07X5R.sdf', '/opt/xchem-fragalysis-2/maxwin/openbind-hippo/a71ev2a/openbind_a71ev2a_c1_scaffold_products.sdf', '/opt/xchem-fragalysis-2/maxwin/openbind-hippo/a71ev2a/cycle_01/bulkdock/openbind_a71ev2a_c1_scaffold_products.sdf', '/opt/xchem-fragalysis-2/maxwin/openbind-hippo/a71ev2a/cycle_01/bulkdock/openbind_a71ev2a_c1_scaffolds.sdf']

>  <fragmenstein_runtime>  (684) 
6.274979

$$$$
C15051-P213
     RDKit          3D

 14 14  0  0  0  0  0  0  0  0999 V2000
    8.2317   14.8780   25.1921 C   0  0  0  0  0  0  0  0  0  0  0  0
    8.7891   13.5729   24.6053 C   0  0  2  0  0  0  0  0  0  0  0  0
   10.1433   13.4052   25.0550 O   0  0  0  0  0  0  0  0  0  0  0  0
    8.7212   13.6955   23.0701 C   0  0  0  0  0  0  0  0  0  0  0  0
    7.7902   13.2335   22.3994 O   0  0  0  0  0  0  0  0  0  0  0  0
    9.8790   14.4292   22.4210 C   0  0  0  0  0  0  0  0  0  0  0  0
   10.5571   15.2197   23.3091 F   0  0  0  0  0  0  0  0  0  0  0  0
    9.4709   15.2580   21.4233 F   0  0  0  0  0  0  0  0  0  0  0  0
    8.0027   12.3634   25.1123 C   0  0  0  0  0  0  0  0  0  0  0  0
    8.3143   11.0843   24.6601 C   0  0  0  0  0  0  0  0  0  0  0  0
    7.5992   10.0049   25.1625 C   0  0  0  0  0  0  0  0  0  0  0  0
    6.5884   10.2069   26.0904 C   0  0  0  0  0  0  0  0  0  0  0  0
    6.3468   11.5000   26.5025 C   0  0  0  0  0  0  0  0  0  0  0  0
    7.0443   12.5669   26.0597 N   0  0  0  0  0  0  0  0  0  0  0  0
  2  1  1  1
  2  3  1  0
  2  4  1  0
  4  5  2  0
  4  6  1  0
  6  7  1  0
  6  8  1  0
  2  9  1  0
  9 10  2  0
 10 11  1  0
 11 12  2  0
 12 13  1  0
 13 14  2  0
 14  9  1  0
M  END
>  <ref_pdb>  (685) 
A3548a

>  <subsites>  (685) 
1 - Active Site

>  <HIPPO Compound ID>  (685) 
31914

>  <energy_score>  (685) 
-18.439908

>  <fragmenstein_mode>  (685) 
expansion

>  <scratch_subdir>  (685) 
/opt/xchem-fragalysis-2/maxwin/BulkDock/SCRATCH/512202/C15051-P213

>  <smiles>  (685) 
C[C@](O)(C(=O)C(F)F)c1ccccn1

>  <alias>  (685) 
C15051-P213

>  <ref_mols>  (685) 
A0719a,A3548a

>  <inspiration_score>  (685) 
None

>  <tags>  (685) 
BulkDock Fragalysis export,fragmenstein_placed,openbind_a71ev2a_c1_knitwork_impure,openbind_a71ev2a_c1_scaffolds

>  <fragmenstein_outcome>  (685) 
acceptable

>  <fragmenstein_error>  (685) 


>  <distance_score>  (685) 
0.591759

>  <inchikey>  (685) 
ULOXUOOKQMHPDW-UHFFFAOYSA-N

>  <name>  (685) 
C15051-P213

>  <HIPPO Pose ID>  (685) 
387901

>  <Energy>  (685) 
84.200767

>  <exports>  (685) 
['/opt/xchem-fragalysis-2/maxwin/BulkDock/OUTPUTS/openbind_a71ev2a_c1_knitwork_impure_165VXJF.sdf', '/opt/xchem-fragalysis-2/maxwin/BulkDock/OUTPUTS/openbind_a71ev2a_c1_knitwork_impure_1B07QS4.sdf', '/opt/xchem-fragalysis-2/maxwin/BulkDock/OUTPUTS/openbind_a71ev2a_c1_knitwork_impure_1B07X5R.sdf', '/opt/xchem-fragalysis-2/maxwin/openbind-hippo/a71ev2a/openbind_a71ev2a_c1_scaffold_products.sdf', '/opt/xchem-fragalysis-2/maxwin/openbind-hippo/a71ev2a/cycle_01/bulkdock/openbind_a71ev2a_c1_scaffold_products.sdf', '/opt/xchem-fragalysis-2/maxwin/openbind-hippo/a71ev2a/cycle_01/bulkdock/openbind_a71ev2a_c1_scaffolds.sdf']

>  <fragmenstein_runtime>  (685) 
0.788664

$$$$
C15066-P213
     RDKit          3D

 15 15  0  0  0  0  0  0  0  0999 V2000
   12.1029   16.0497   21.5921 C   0  0  0  0  0  0  0  0  0  0  0  0
   12.0158   15.0250   22.7083 C   0  0  0  0  0  0  0  0  0  0  0  0
   10.6622   14.9311   23.4160 C   0  0  0  0  0  0  0  0  0  0  0  0
    9.4841   14.6219   22.4869 C   0  0  2  0  0  0  0  0  0  0  0  0
    8.8219   15.8795   21.9364 C   0  0  0  0  0  0  0  0  0  0  0  0
    8.3684   13.7519   23.0665 C   0  0  0  0  0  0  0  0  0  0  0  0
    7.6730   13.0871   22.2828 O   0  0  0  0  0  0  0  0  0  0  0  0
    7.9623   13.8290   24.5550 C   0  0  2  0  0  0  0  0  0  0  0  0
    8.8044   14.4536   25.4943 O   0  0  0  0  0  0  0  0  0  0  0  0
    7.5833   12.4827   25.1299 C   0  0  0  0  0  0  0  0  0  0  0  0
    8.1454   11.2735   24.7155 C   0  0  0  0  0  0  0  0  0  0  0  0
    7.6507   10.0800   25.2266 C   0  0  0  0  0  0  0  0  0  0  0  0
    6.6402   10.1279   26.1723 C   0  0  0  0  0  0  0  0  0  0  0  0
    6.1263   11.2723   26.6592 N   0  0  0  0  0  0  0  0  0  0  0  0
    6.5975   12.4167   26.1142 C   0  0  0  0  0  0  0  0  0  0  0  0
  1  2  1  0
  2  3  1  0
  3  4  1  0
  4  5  1  1
  4  6  1  0
  6  7  2  0
  6  8  1  0
  8  9  1  1
  8 10  1  0
 10 11  2  0
 11 12  1  0
 12 13  2  0
 13 14  1  0
 14 15  2  0
 15 10  1  0
M  END
>  <ref_pdb>  (686) 
A3548a

>  <subsites>  (686) 
1 - Active Site

>  <HIPPO Compound ID>  (686) 
33243

>  <energy_score>  (686) 
-18.686161

>  <fragmenstein_mode>  (686) 
expansion

>  <scratch_subdir>  (686) 
/opt/xchem-fragalysis-2/maxwin/BulkDock/SCRATCH/512202/C15066-P213

>  <smiles>  (686) 
CCC[C@H](C)C(=O)[C@H](O)c1cccnc1

>  <alias>  (686) 
C15066-P213

>  <ref_mols>  (686) 
A0719a,A3548a

>  <inspiration_score>  (686) 
None

>  <tags>  (686) 
BulkDock Fragalysis export,fragmenstein_placed,openbind_a71ev2a_c1_knitwork_impure,openbind_a71ev2a_c1_scaffolds

>  <fragmenstein_outcome>  (686) 
acceptable

>  <fragmenstein_error>  (686) 


>  <distance_score>  (686) 
0.962446

>  <inchikey>  (686) 
ZTMHRCWTNSPQGN-UHFFFAOYSA-N

>  <name>  (686) 
C15066-P213

>  <HIPPO Pose ID>  (686) 
387912

>  <Energy>  (686) 
64.680749

>  <exports>  (686) 
['/opt/xchem-fragalysis-2/maxwin/BulkDock/OUTPUTS/openbind_a71ev2a_c1_knitwork_impure_165VXJF.sdf', '/opt/xchem-fragalysis-2/maxwin/BulkDock/OUTPUTS/openbind_a71ev2a_c1_knitwork_impure_1B07QS4.sdf', '/opt/xchem-fragalysis-2/maxwin/BulkDock/OUTPUTS/openbind_a71ev2a_c1_knitwork_impure_1B07X5R.sdf', '/opt/xchem-fragalysis-2/maxwin/openbind-hippo/a71ev2a/openbind_a71ev2a_c1_scaffold_products.sdf', '/opt/xchem-fragalysis-2/maxwin/openbind-hippo/a71ev2a/cycle_01/bulkdock/openbind_a71ev2a_c1_scaffold_products.sdf', '/opt/xchem-fragalysis-2/maxwin/openbind-hippo/a71ev2a/cycle_01/bulkdock/openbind_a71ev2a_c1_scaffolds.sdf']

>  <fragmenstein_runtime>  (686) 
1.669934

$$$$
C15070-P213
     RDKit          3D

 15 15  0  0  0  0  0  0  0  0999 V2000
   11.9896   15.8131   21.3907 C   0  0  0  0  0  0  0  0  0  0  0  0
   12.0529   14.9457   22.6442 C   0  0  0  0  0  0  0  0  0  0  0  0
   10.7513   14.8560   23.4588 C   0  0  1  0  0  0  0  0  0  0  0  0
   10.2337   16.2426   23.7766 C   0  0  0  0  0  0  0  0  0  0  0  0
    9.7239   13.9738   22.7401 C   0  0  0  0  0  0  0  0  0  0  0  0
    8.3211   13.9144   23.3417 C   0  0  1  0  0  0  0  0  0  0  0  0
    7.5497   13.0332   22.5308 O   0  0  0  0  0  0  0  0  0  0  0  0
    8.2987   13.5518   24.8341 C   0  0  0  0  0  0  0  0  0  0  0  0
    8.7339   14.2832   25.7201 O   0  0  0  0  0  0  0  0  0  0  0  0
    7.6706   12.3006   25.2657 C   0  0  0  0  0  0  0  0  0  0  0  0
    8.1221   11.0563   24.8455 C   0  0  0  0  0  0  0  0  0  0  0  0
    7.4699    9.9291   25.3249 C   0  0  0  0  0  0  0  0  0  0  0  0
    6.4278   10.0815   26.2289 C   0  0  0  0  0  0  0  0  0  0  0  0
    6.0085   11.2763   26.6885 N   0  0  0  0  0  0  0  0  0  0  0  0
    6.6331   12.3667   26.1857 C   0  0  0  0  0  0  0  0  0  0  0  0
  1  2  1  0
  2  3  1  0
  3  4  1  6
  3  5  1  0
  5  6  1  0
  6  7  1  6
  6  8  1  0
  8  9  2  0
  8 10  1  0
 10 11  2  0
 11 12  1  0
 12 13  2  0
 13 14  1  0
 14 15  2  0
 15 10  1  0
M  END
>  <ref_pdb>  (687) 
A3548a

>  <subsites>  (687) 
1 - Active Site

>  <HIPPO Compound ID>  (687) 
765

>  <energy_score>  (687) 
-28.880214

>  <fragmenstein_mode>  (687) 
expansion

>  <scratch_subdir>  (687) 
/opt/xchem-fragalysis-2/maxwin/BulkDock/SCRATCH/512202/C15070-P213

>  <smiles>  (687) 
CC[C@@H](C)C[C@@H](O)C(=O)c1cccnc1

>  <alias>  (687) 
C15070-P213

>  <ref_mols>  (687) 
A0719a,A3548a

>  <inspiration_score>  (687) 
None

>  <tags>  (687) 
BulkDock Fragalysis export,fragmenstein_placed,openbind_a71ev2a_c1_knitwork_impure,openbind_a71ev2a_c1_scaffolds

>  <fragmenstein_outcome>  (687) 
acceptable

>  <fragmenstein_error>  (687) 


>  <distance_score>  (687) 
0.79456

>  <inchikey>  (687) 
GHIFOCYQWCGZBT-UHFFFAOYSA-N

>  <name>  (687) 
C15070-P213

>  <HIPPO Pose ID>  (687) 
387915

>  <Energy>  (687) 
72.960687

>  <exports>  (687) 
['/opt/xchem-fragalysis-2/maxwin/BulkDock/OUTPUTS/openbind_a71ev2a_c1_knitwork_impure_165VXJF.sdf', '/opt/xchem-fragalysis-2/maxwin/BulkDock/OUTPUTS/openbind_a71ev2a_c1_knitwork_impure_1B07QS4.sdf', '/opt/xchem-fragalysis-2/maxwin/BulkDock/OUTPUTS/openbind_a71ev2a_c1_knitwork_impure_1B07X5R.sdf', '/opt/xchem-fragalysis-2/maxwin/openbind-hippo/a71ev2a/openbind_a71ev2a_c1_scaffold_products.sdf', '/opt/xchem-fragalysis-2/maxwin/openbind-hippo/a71ev2a/cycle_01/bulkdock/openbind_a71ev2a_c1_scaffold_products.sdf', '/opt/xchem-fragalysis-2/maxwin/openbind-hippo/a71ev2a/cycle_01/bulkdock/openbind_a71ev2a_c1_scaffolds.sdf']

>  <fragmenstein_runtime>  (687) 
1.5836

$$$$
C8163-P213
     RDKit          3D

 15 15  0  0  0  0  0  0  0  0999 V2000
   11.4213   15.6733   20.2523 C   0  0  0  0  0  0  0  0  0  0  0  0
   11.6769   15.3978   21.3920 C   0  0  0  0  0  0  0  0  0  0  0  0
   11.9313   14.9501   22.7676 C   0  0  0  0  0  0  0  0  0  0  0  0
   10.7763   15.2885   23.7044 C   0  0  0  0  0  0  0  0  0  0  0  0
    9.4859   14.8229   23.1844 N   0  0  0  0  0  0  0  0  0  0  0  0
    8.9421   13.2723   23.4692 S   0  0  0  0  0  0  0  0  0  0  0  0
    7.9045   13.0519   22.4853 O   0  0  0  0  0  0  0  0  0  0  0  0
   10.0676   12.3797   23.6300 O   0  0  0  0  0  0  0  0  0  0  0  0
    8.1584   13.4743   25.0545 C   0  0  0  0  0  0  0  0  0  0  0  0
    7.1576   12.3599   25.3388 C   0  0  1  0  0  0  0  0  0  0  0  0
    7.7786   10.9663   25.3065 C   0  0  0  0  0  0  0  0  0  0  0  0
    6.7943    9.8950   25.7273 C   0  0  0  0  0  0  0  0  0  0  0  0
    5.9830   10.2386   26.9650 C   0  0  0  0  0  0  0  0  0  0  0  0
    5.4138   11.5781   26.9110 N   0  0  0  0  0  0  0  0  0  0  0  0
    6.4171   12.6061   26.6530 C   0  0  0  0  0  0  0  0  0  0  0  0
  1  2  3  0
  2  3  1  0
  3  4  1  0
  4  5  1  0
  5  6  1  0
  6  7  2  0
  6  8  2  0
  6  9  1  0
 10  9  1  1
 10 11  1  0
 11 12  1  0
 12 13  1  0
 13 14  1  0
 14 15  1  0
 15 10  1  0
M  END
>  <ref_pdb>  (688) 
A3548a

>  <subsites>  (688) 
1 - Active Site

>  <HIPPO Compound ID>  (688) 
5954

>  <energy_score>  (688) 
-37.163488

>  <fragmenstein_mode>  (688) 
expansion

>  <scratch_subdir>  (688) 
/opt/xchem-fragalysis-2/maxwin/BulkDock/SCRATCH/512202/C8163-P213

>  <smiles>  (688) 
C#CCCNS(=O)(=O)C[C@H]1CCCNC1

>  <alias>  (688) 
C8163-P213

>  <ref_mols>  (688) 
A0719a,A3548a

>  <inspiration_score>  (688) 
None

>  <tags>  (688) 
BulkDock Fragalysis export,fragmenstein_placed,openbind_a71ev2a_c1_knitwork_impure,openbind_a71ev2a_c1_scaffolds

>  <fragmenstein_outcome>  (688) 
acceptable

>  <fragmenstein_error>  (688) 


>  <distance_score>  (688) 
0.999081

>  <inchikey>  (688) 
RTIJVGZLLDAVEL-UHFFFAOYSA-N

>  <name>  (688) 
C8163-P213

>  <HIPPO Pose ID>  (688) 
387941

>  <Energy>  (688) 
-62.188245

>  <exports>  (688) 
['/opt/xchem-fragalysis-2/maxwin/BulkDock/OUTPUTS/openbind_a71ev2a_c1_knitwork_impure_165VXJF.sdf', '/opt/xchem-fragalysis-2/maxwin/BulkDock/OUTPUTS/openbind_a71ev2a_c1_knitwork_impure_1B07QS4.sdf', '/opt/xchem-fragalysis-2/maxwin/BulkDock/OUTPUTS/openbind_a71ev2a_c1_knitwork_impure_1B07X5R.sdf', '/opt/xchem-fragalysis-2/maxwin/openbind-hippo/a71ev2a/openbind_a71ev2a_c1_scaffold_products.sdf', '/opt/xchem-fragalysis-2/maxwin/openbind-hippo/a71ev2a/cycle_01/bulkdock/openbind_a71ev2a_c1_scaffold_products.sdf', '/opt/xchem-fragalysis-2/maxwin/openbind-hippo/a71ev2a/cycle_01/bulkdock/openbind_a71ev2a_c1_scaffolds.sdf']

>  <fragmenstein_runtime>  (688) 
1.431031

$$$$
C8173-P213
     RDKit          3D

 17 17  0  0  0  0  0  0  0  0999 V2000
    7.5519   13.2996   22.2318 O   0  0  0  0  0  0  0  0  0  0  0  0
    8.3470   13.9034   22.8392 C   0  0  0  0  0  0  0  0  0  0  0  0
    9.3236   15.0313   22.3834 N   0  0  0  0  0  0  0  0  0  0  0  0
    9.5813   15.5724   21.0717 C   0  0  0  0  0  0  0  0  0  0  0  0
   11.0219   15.2796   20.6880 C   0  0  0  0  0  0  0  0  0  0  0  0
   11.2761   15.5480   19.2305 C   0  0  0  0  0  0  0  0  0  0  0  0
   10.6290   14.6931   18.4262 F   0  0  0  0  0  0  0  0  0  0  0  0
   10.9044   16.7997   18.9027 F   0  0  0  0  0  0  0  0  0  0  0  0
   12.5910   15.4158   18.9582 F   0  0  0  0  0  0  0  0  0  0  0  0
    8.7288   13.6569   24.3062 C   0  0  1  0  0  0  0  0  0  0  0  0
    8.6137   14.7996   25.0503 F   0  0  0  0  0  0  0  0  0  0  0  0
    8.0804   12.5177   25.0759 C   0  0  0  0  0  0  0  0  0  0  0  0
    8.1193   11.1617   24.3924 C   0  0  0  0  0  0  0  0  0  0  0  0
    7.5531   10.0841   25.3044 C   0  0  0  0  0  0  0  0  0  0  0  0
    6.2381   10.3794   25.8426 N   0  0  0  0  0  0  0  0  0  0  0  0
    6.1578   11.6851   26.4860 C   0  0  0  0  0  0  0  0  0  0  0  0
    6.6930   12.8349   25.6258 C   0  0  0  0  0  0  0  0  0  0  0  0
  1  2  2  0
  2  3  1  0
  3  4  1  0
  4  5  1  0
  5  6  1  0
  6  7  1  0
  6  8  1  0
  6  9  1  0
  2 10  1  0
 10 11  1  1
 10 12  1  0
 12 13  1  0
 13 14  1  0
 14 15  1  0
 15 16  1  0
 16 17  1  0
 17 12  1  0
M  END
>  <ref_pdb>  (689) 
A3548a

>  <subsites>  (689) 
1 - Active Site

>  <HIPPO Compound ID>  (689) 
4666

>  <energy_score>  (689) 
-6.262598

>  <fragmenstein_mode>  (689) 
expansion

>  <scratch_subdir>  (689) 
/opt/xchem-fragalysis-2/maxwin/BulkDock/SCRATCH/512202/C8173-P213

>  <smiles>  (689) 
O=C(NCCC(F)(F)F)[C@@H](F)C1CCNCC1

>  <alias>  (689) 
C8173-P213

>  <ref_mols>  (689) 
A0719a,A3548a

>  <inspiration_score>  (689) 
None

>  <tags>  (689) 
BulkDock Fragalysis export,fragmenstein_placed,openbind_a71ev2a_c1_knitwork_impure,openbind_a71ev2a_c1_scaffolds

>  <fragmenstein_outcome>  (689) 
acceptable

>  <fragmenstein_error>  (689) 


>  <distance_score>  (689) 
0.919924

>  <inchikey>  (689) 
NRPARTHTHRTTMK-UHFFFAOYSA-N

>  <name>  (689) 
C8173-P213

>  <HIPPO Pose ID>  (689) 
387948

>  <Energy>  (689) 
24.463675

>  <exports>  (689) 
['/opt/xchem-fragalysis-2/maxwin/BulkDock/OUTPUTS/openbind_a71ev2a_c1_knitwork_impure_165VXJF.sdf', '/opt/xchem-fragalysis-2/maxwin/BulkDock/OUTPUTS/openbind_a71ev2a_c1_knitwork_impure_1B07QS4.sdf', '/opt/xchem-fragalysis-2/maxwin/BulkDock/OUTPUTS/openbind_a71ev2a_c1_knitwork_impure_1B07X5R.sdf', '/opt/xchem-fragalysis-2/maxwin/openbind-hippo/a71ev2a/openbind_a71ev2a_c1_scaffold_products.sdf', '/opt/xchem-fragalysis-2/maxwin/openbind-hippo/a71ev2a/cycle_01/bulkdock/openbind_a71ev2a_c1_scaffold_products.sdf', '/opt/xchem-fragalysis-2/maxwin/openbind-hippo/a71ev2a/cycle_01/bulkdock/openbind_a71ev2a_c1_scaffolds.sdf']

>  <fragmenstein_runtime>  (689) 
4.801373

$$$$
C7489-P197
     RDKit          3D

 12 12  0  0  0  0  0  0  0  0999 V2000
    4.8442   12.5499   28.5005 C   0  0  0  0  0  0  0  0  0  0  0  0
    4.4911   11.3063   27.6981 C   0  0  0  0  0  0  0  0  0  0  0  0
    3.5423   10.4040   28.4805 C   0  0  0  0  0  0  0  0  0  0  0  0
    5.8078   10.5950   27.4145 C   0  0  0  0  0  0  0  0  0  0  0  0
    6.2679    9.8170   28.1526 O   0  0  0  0  0  0  0  0  0  0  0  0
    6.3734   11.1864   26.0966 N   0  0  0  0  0  0  0  0  0  0  0  0
    7.6595   11.0123   25.4687 C   0  0  0  0  0  0  0  0  0  0  0  0
    7.7690    9.6671   24.7827 C   0  0  0  0  0  0  0  0  0  0  0  0
    9.0311    9.5018   23.9515 C   0  0  0  0  0  0  0  0  0  0  0  0
    9.4034   10.6835   23.1924 N   0  0  0  0  0  0  0  0  0  0  0  0
    9.3780   11.9374   23.9249 C   0  0  0  0  0  0  0  0  0  0  0  0
    8.0187   12.1754   24.5620 C   0  0  0  0  0  0  0  0  0  0  0  0
  1  2  1  0
  2  3  1  0
  2  4  1  0
  4  5  2  0
  4  6  1  0
  6  7  1  0
  7  8  1  0
  8  9  1  0
  9 10  1  0
 10 11  1  0
 11 12  1  0
 12  7  1  0
M  END
>  <ref_pdb>  (690) 
A3616b

>  <subsites>  (690) 
1 - Active Site

>  <HIPPO Compound ID>  (690) 
4928

>  <energy_score>  (690) 
-10.38387

>  <fragmenstein_mode>  (690) 
expansion

>  <scratch_subdir>  (690) 
/opt/xchem-fragalysis-2/maxwin/BulkDock/SCRATCH/512202/C7489-P197

>  <smiles>  (690) 
CC(C)C(=O)NC1CCNCC1

>  <alias>  (690) 
C7489-P197

>  <ref_mols>  (690) 
A1445a,A3616b

>  <inspiration_score>  (690) 
None

>  <tags>  (690) 
BulkDock Fragalysis export,fragmenstein_placed,openbind_a71ev2a_c1_knitwork_impure,openbind_a71ev2a_c1_scaffolds

>  <fragmenstein_outcome>  (690) 
acceptable

>  <fragmenstein_error>  (690) 


>  <distance_score>  (690) 
0.963382

>  <inchikey>  (690) 
FCRUNMPWXPNPMG-UHFFFAOYSA-N

>  <name>  (690) 
C7489-P197

>  <HIPPO Pose ID>  (690) 
387981

>  <Energy>  (690) 
-4.44386

>  <exports>  (690) 
['/opt/xchem-fragalysis-2/maxwin/BulkDock/OUTPUTS/openbind_a71ev2a_c1_knitwork_impure_165VXJF.sdf', '/opt/xchem-fragalysis-2/maxwin/BulkDock/OUTPUTS/openbind_a71ev2a_c1_knitwork_impure_1B07QS4.sdf', '/opt/xchem-fragalysis-2/maxwin/BulkDock/OUTPUTS/openbind_a71ev2a_c1_knitwork_impure_1B07X5R.sdf', '/opt/xchem-fragalysis-2/maxwin/openbind-hippo/a71ev2a/openbind_a71ev2a_c1_scaffold_products.sdf', '/opt/xchem-fragalysis-2/maxwin/openbind-hippo/a71ev2a/cycle_01/bulkdock/openbind_a71ev2a_c1_scaffold_products.sdf', '/opt/xchem-fragalysis-2/maxwin/openbind-hippo/a71ev2a/cycle_01/bulkdock/openbind_a71ev2a_c1_scaffolds.sdf']

>  <fragmenstein_runtime>  (690) 
3.624413

$$$$
C7500-P197
     RDKit          3D

 14 14  0  0  0  0  0  0  0  0999 V2000
    1.8324    9.9563   29.5212 C   0  0  0  0  0  0  0  0  0  0  0  0
    3.1636   10.6788   29.4814 C   0  0  0  0  0  0  0  0  0  0  0  0
    3.8213   10.3584   28.2559 O   0  0  0  0  0  0  0  0  0  0  0  0
    4.8466   11.2772   27.8197 C   0  0  0  0  0  0  0  0  0  0  0  0
    5.8190   11.6486   28.9506 C   0  0  0  0  0  0  0  0  0  0  0  0
    4.1604   12.5487   27.2810 C   0  0  0  0  0  0  0  0  0  0  0  0
    5.6711   10.5467   26.7091 C   0  0  0  0  0  0  0  0  0  0  0  0
    6.3944   11.4848   25.8551 N   0  0  0  0  0  0  0  0  0  0  0  0
    7.7113   11.0836   25.3712 C   0  0  0  0  0  0  0  0  0  0  0  0
    7.7864    9.7100   24.7286 C   0  0  0  0  0  0  0  0  0  0  0  0
    9.0639    9.4545   23.9398 C   0  0  0  0  0  0  0  0  0  0  0  0
    9.5033   10.5789   23.1354 N   0  0  0  0  0  0  0  0  0  0  0  0
    9.5515   11.8531   23.8303 C   0  0  0  0  0  0  0  0  0  0  0  0
    8.2062   12.1935   24.4433 C   0  0  0  0  0  0  0  0  0  0  0  0
  1  2  1  0
  2  3  1  0
  3  4  1  0
  4  5  1  0
  4  6  1  0
  4  7  1  0
  7  8  1  0
  8  9  1  0
  9 10  1  0
 10 11  1  0
 11 12  1  0
 12 13  1  0
 13 14  1  0
 14  9  1  0
M  END
>  <ref_pdb>  (691) 
A3616b

>  <subsites>  (691) 
1 - Active Site

>  <HIPPO Compound ID>  (691) 
5393

>  <energy_score>  (691) 
-40.583439

>  <fragmenstein_mode>  (691) 
expansion

>  <scratch_subdir>  (691) 
/opt/xchem-fragalysis-2/maxwin/BulkDock/SCRATCH/512202/C7500-P197

>  <smiles>  (691) 
CCOC(C)(C)CNC1CCNCC1

>  <alias>  (691) 
C7500-P197

>  <ref_mols>  (691) 
A1445a,A3616b

>  <inspiration_score>  (691) 
None

>  <tags>  (691) 
BulkDock Fragalysis export,fragmenstein_placed,openbind_a71ev2a_c1_knitwork_impure,openbind_a71ev2a_c1_scaffolds

>  <fragmenstein_outcome>  (691) 
acceptable

>  <fragmenstein_error>  (691) 


>  <distance_score>  (691) 
0.786767

>  <inchikey>  (691) 
GCDRJSAGWFOAHE-UHFFFAOYSA-N

>  <name>  (691) 
C7500-P197

>  <HIPPO Pose ID>  (691) 
387985

>  <Energy>  (691) 
38.609913

>  <exports>  (691) 
['/opt/xchem-fragalysis-2/maxwin/BulkDock/OUTPUTS/openbind_a71ev2a_c1_knitwork_impure_165VXJF.sdf', '/opt/xchem-fragalysis-2/maxwin/BulkDock/OUTPUTS/openbind_a71ev2a_c1_knitwork_impure_1B07QS4.sdf', '/opt/xchem-fragalysis-2/maxwin/BulkDock/OUTPUTS/openbind_a71ev2a_c1_knitwork_impure_1B07X5R.sdf', '/opt/xchem-fragalysis-2/maxwin/openbind-hippo/a71ev2a/openbind_a71ev2a_c1_scaffold_products.sdf', '/opt/xchem-fragalysis-2/maxwin/openbind-hippo/a71ev2a/cycle_01/bulkdock/openbind_a71ev2a_c1_scaffold_products.sdf', '/opt/xchem-fragalysis-2/maxwin/openbind-hippo/a71ev2a/cycle_01/bulkdock/openbind_a71ev2a_c1_scaffolds.sdf']

>  <fragmenstein_runtime>  (691) 
16.367217

$$$$
C18925-P134
     RDKit          3D

 13 14  0  0  0  0  0  0  0  0999 V2000
    7.2990   13.5420   22.2837 O   0  0  0  0  0  0  0  0  0  0  0  0
    7.5760   13.3772   23.4656 C   0  0  0  0  0  0  0  0  0  0  0  0
    8.9500   13.0295   23.8360 C   0  0  0  0  0  0  0  0  0  0  0  0
    9.9977   13.8097   23.3020 C   0  0  0  0  0  0  0  0  0  0  0  0
   11.3222   13.5145   23.6123 C   0  0  0  0  0  0  0  0  0  0  0  0
   11.5372   12.4309   24.4367 C   0  0  0  0  0  0  0  0  0  0  0  0
   10.5068   11.6096   24.9031 C   0  0  0  0  0  0  0  0  0  0  0  0
    9.1868   11.9044   24.6399 C   0  0  0  0  0  0  0  0  0  0  0  0
   11.0153   10.4860   25.5557 N   0  0  0  0  0  0  0  0  0  0  0  0
   12.3939   10.4909   25.5364 C   0  0  0  0  0  0  0  0  0  0  0  0
   13.1723    9.6278   25.8824 O   0  0  0  0  0  0  0  0  0  0  0  0
   12.7941   11.8171   24.8616 C   0  0  0  0  0  0  0  0  0  0  0  0
   13.9249   12.1710   24.6266 O   0  0  0  0  0  0  0  0  0  0  0  0
  1  2  2  0
  2  3  1  0
  3  4  2  0
  4  5  1  0
  5  6  2  0
  6  7  1  0
  7  8  2  0
  7  9  1  0
  9 10  1  0
 10 11  2  0
 10 12  1  0
 12 13  2  0
  8  3  1  0
 12  6  1  0
M  END
>  <ref_pdb>  (692) 
A2513a

>  <subsites>  (692) 
1 - Active Site

>  <HIPPO Compound ID>  (692) 
5359

>  <energy_score>  (692) 
-7.990913

>  <fragmenstein_mode>  (692) 
expansion

>  <scratch_subdir>  (692) 
/opt/xchem-fragalysis-2/maxwin/BulkDock/SCRATCH/512202/C18925-P134

>  <smiles>  (692) 
O=Cc1ccc2c(c1)NC(=O)C2=O

>  <alias>  (692) 
C18925-P134

>  <ref_mols>  (692) 
A4586a,A2513a

>  <inspiration_score>  (692) 
None

>  <tags>  (692) 
BulkDock Fragalysis export,fragmenstein_placed,openbind_a71ev2a_c1_knitwork_impure,openbind_a71ev2a_c1_scaffolds

>  <fragmenstein_outcome>  (692) 
acceptable

>  <fragmenstein_error>  (692) 


>  <distance_score>  (692) 
0.716793

>  <inchikey>  (692) 
BPAGEGOWFQURHS-UHFFFAOYSA-N

>  <name>  (692) 
C18925-P134

>  <HIPPO Pose ID>  (692) 
388423

>  <Energy>  (692) 
75.363324

>  <exports>  (692) 
['/opt/xchem-fragalysis-2/maxwin/BulkDock/OUTPUTS/openbind_a71ev2a_c1_knitwork_impure_165VXJF.sdf', '/opt/xchem-fragalysis-2/maxwin/BulkDock/OUTPUTS/openbind_a71ev2a_c1_knitwork_impure_1B07QS4.sdf', '/opt/xchem-fragalysis-2/maxwin/BulkDock/OUTPUTS/openbind_a71ev2a_c1_knitwork_impure_1B07X5R.sdf', '/opt/xchem-fragalysis-2/maxwin/openbind-hippo/a71ev2a/openbind_a71ev2a_c1_scaffold_products.sdf', '/opt/xchem-fragalysis-2/maxwin/openbind-hippo/a71ev2a/cycle_01/bulkdock/openbind_a71ev2a_c1_scaffold_products.sdf', '/opt/xchem-fragalysis-2/maxwin/openbind-hippo/a71ev2a/cycle_01/bulkdock/openbind_a71ev2a_c1_scaffolds.sdf']

>  <fragmenstein_runtime>  (692) 
0.683369

$$$$
C24522-P77
     RDKit          3D

 13 13  0  0  0  0  0  0  0  0999 V2000
    9.6766   13.8161   21.5107 C   0  0  0  0  0  0  0  0  0  0  0  0
   10.0621   15.0742   22.2260 C   0  0  0  0  0  0  0  0  0  0  0  0
   11.5785   15.2624   22.0100 C   0  0  0  0  0  0  0  0  0  0  0  0
    9.3490   16.2113   21.4768 C   0  0  0  0  0  0  0  0  0  0  0  0
    9.7839   14.8138   23.7355 C   0  0  0  0  0  0  0  0  0  0  0  0
   10.7285   14.8046   24.5519 O   0  0  0  0  0  0  0  0  0  0  0  0
    8.3828   14.4231   24.3183 C   0  0  2  0  0  0  0  0  0  0  0  0
    7.1634   15.1923   23.8232 C   0  0  0  0  0  0  0  0  0  0  0  0
    8.4637   14.7204   25.7415 O   0  0  0  0  0  0  0  0  0  0  0  0
    8.0690   12.9224   24.1714 C   0  0  2  0  0  0  0  0  0  0  0  0
    7.2836   12.2029   25.2990 C   0  0  0  0  0  0  0  0  0  0  0  0
    8.2079   11.0242   24.9920 C   0  0  0  0  0  0  0  0  0  0  0  0
    9.1942   11.9840   24.4485 N   0  0  0  0  0  0  0  0  0  0  0  0
  1  2  1  0
  2  3  1  0
  2  4  1  0
  2  5  1  0
  5  6  2  0
  5  7  1  0
  7  8  1  6
  7  9  1  0
  7 10  1  0
 10 11  1  1
 11 12  1  0
 12 13  1  0
 13 10  1  0
M  END
>  <ref_pdb>  (693) 
A0719a

>  <subsites>  (693) 
1 - Active Site

>  <HIPPO Compound ID>  (693) 
2382

>  <energy_score>  (693) 
-23.672108

>  <fragmenstein_mode>  (693) 
expansion

>  <scratch_subdir>  (693) 
/opt/xchem-fragalysis-2/maxwin/BulkDock/SCRATCH/512202/C24522-P77

>  <smiles>  (693) 
CC(C)(C)C(=O)[C@](C)(O)[C@@H]1CCN1

>  <alias>  (693) 
C24522-P77

>  <ref_mols>  (693) 
A0719a,A4994a

>  <inspiration_score>  (693) 
None

>  <tags>  (693) 
BulkDock Fragalysis export,fragmenstein_placed,openbind_a71ev2a_c1_knitwork_impure,openbind_a71ev2a_c1_scaffolds

>  <fragmenstein_outcome>  (693) 
acceptable

>  <fragmenstein_error>  (693) 


>  <distance_score>  (693) 
0.962537

>  <inchikey>  (693) 
OLHKVAHFSOVKNO-UHFFFAOYSA-N

>  <name>  (693) 
C24522-P77

>  <HIPPO Pose ID>  (693) 
388893

>  <Energy>  (693) 
86.16604

>  <exports>  (693) 
['/opt/xchem-fragalysis-2/maxwin/BulkDock/OUTPUTS/openbind_a71ev2a_c1_knitwork_impure_165VXJF.sdf', '/opt/xchem-fragalysis-2/maxwin/BulkDock/OUTPUTS/openbind_a71ev2a_c1_knitwork_impure_1B07QS4.sdf', '/opt/xchem-fragalysis-2/maxwin/BulkDock/OUTPUTS/openbind_a71ev2a_c1_knitwork_impure_1B07X5R.sdf', '/opt/xchem-fragalysis-2/maxwin/openbind-hippo/a71ev2a/openbind_a71ev2a_c1_scaffold_products.sdf', '/opt/xchem-fragalysis-2/maxwin/openbind-hippo/a71ev2a/cycle_01/bulkdock/openbind_a71ev2a_c1_scaffold_products.sdf', '/opt/xchem-fragalysis-2/maxwin/openbind-hippo/a71ev2a/cycle_01/bulkdock/openbind_a71ev2a_c1_scaffolds.sdf']

>  <fragmenstein_runtime>  (693) 
3.970624

$$$$
C495-P374
     RDKit          3D

 22 24  0  0  0  0  0  0  0  0999 V2000
   24.5592   19.9218   21.7279 C   0  0  0  0  0  0  0  0  0  0  0  0
   25.6575   20.6028   20.9644 C   0  0  0  0  0  0  0  0  0  0  0  0
   26.9925   20.3055   21.2814 C   0  0  0  0  0  0  0  0  0  0  0  0
   28.0505   20.8981   20.5943 C   0  0  0  0  0  0  0  0  0  0  0  0
   27.8316   21.7984   19.5627 C   0  0  0  0  0  0  0  0  0  0  0  0
   26.5066   22.0939   19.2411 C   0  0  0  0  0  0  0  0  0  0  0  0
   25.9277   23.1525   18.0203 S   0  0  0  0  0  0  0  0  0  0  0  0
   24.3423   22.7951   18.4877 C   0  0  0  0  0  0  0  0  0  0  0  0
   23.3010   23.3800   17.8559 N   0  0  0  0  0  0  0  0  0  0  0  0
   23.2766   24.4355   16.7146 C   0  0  0  0  0  0  0  0  0  0  0  0
   24.1511   25.0156   16.2013 O   0  0  0  0  0  0  0  0  0  0  0  0
   21.8135   24.6236   16.3667 C   0  0  0  0  0  0  0  0  0  0  0  0
   21.6527   25.1664   14.9579 C   0  0  0  0  0  0  0  0  0  0  0  0
   20.3221   24.8493   14.5369 O   0  0  0  0  0  0  0  0  0  0  0  0
   20.0289   25.3051   13.2068 C   0  0  0  0  0  0  0  0  0  0  0  0
   20.8599   24.5716   12.1409 C   0  0  0  0  0  0  0  0  0  0  0  0
   20.0872   24.3268   10.8458 C   0  0  0  0  0  0  0  0  0  0  0  0
   19.1890   25.4390   10.5583 N   0  0  0  0  0  0  0  0  0  0  0  0
   18.1358   25.5732   11.5667 C   0  0  0  0  0  0  0  0  0  0  0  0
   18.5390   25.0878   12.9591 C   0  0  0  0  0  0  0  0  0  0  0  0
   24.1748   21.9386   19.4628 N   0  0  0  0  0  0  0  0  0  0  0  0
   25.4211   21.5250   19.9159 C   0  0  0  0  0  0  0  0  0  0  0  0
  1  2  1  0
  2  3  2  0
  3  4  1  0
  4  5  2  0
  5  6  1  0
  6  7  1  0
  7  8  1  0
  8  9  1  0
  9 10  1  0
 10 11  2  0
 10 12  1  0
 12 13  1  0
 13 14  1  0
 14 15  1  0
 15 16  1  0
 16 17  1  0
 17 18  1  0
 18 19  1  0
 19 20  1  0
  8 21  2  0
 21 22  1  0
 22  2  1  0
 22  6  2  0
 20 15  1  0
M  END
>  <ref_pdb>  (694) 
A4463a

>  <subsites>  (694) 
1 - Active Site,5 - A3181/A/202/1

>  <HIPPO Compound ID>  (694) 
14605

>  <energy_score>  (694) 
-63.455682

>  <fragmenstein_mode>  (694) 
expansion

>  <scratch_subdir>  (694) 
/opt/xchem-fragalysis-2/maxwin/BulkDock/SCRATCH/512202/C495-P374

>  <smiles>  (694) 
Cc1cccc2sc(NC(=O)CCOC3CCNCC3)nc12

>  <alias>  (694) 
C495-P374

>  <ref_mols>  (694) 
A0514b,A4463a

>  <inspiration_score>  (694) 
None

>  <tags>  (694) 
BulkDock Fragalysis export,fragmenstein_placed,openbind_a71ev2a_c1_knitwork_impure,openbind_a71ev2a_c1_scaffolds

>  <fragmenstein_outcome>  (694) 
acceptable

>  <fragmenstein_error>  (694) 


>  <distance_score>  (694) 
0.866457

>  <inchikey>  (694) 
RAHVMMANICHALQ-UHFFFAOYSA-N

>  <name>  (694) 
C495-P374

>  <HIPPO Pose ID>  (694) 
389241

>  <Energy>  (694) 
-1.227019

>  <exports>  (694) 
['/opt/xchem-fragalysis-2/maxwin/BulkDock/OUTPUTS/openbind_a71ev2a_c1_knitwork_impure_165VXJF.sdf', '/opt/xchem-fragalysis-2/maxwin/BulkDock/OUTPUTS/openbind_a71ev2a_c1_knitwork_impure_1B07QS4.sdf', '/opt/xchem-fragalysis-2/maxwin/BulkDock/OUTPUTS/openbind_a71ev2a_c1_knitwork_impure_1B07X5R.sdf', '/opt/xchem-fragalysis-2/maxwin/openbind-hippo/a71ev2a/openbind_a71ev2a_c1_scaffold_products.sdf', '/opt/xchem-fragalysis-2/maxwin/openbind-hippo/a71ev2a/cycle_01/bulkdock/openbind_a71ev2a_c1_scaffold_products.sdf', '/opt/xchem-fragalysis-2/maxwin/openbind-hippo/a71ev2a/cycle_01/bulkdock/openbind_a71ev2a_c1_scaffolds.sdf']

>  <fragmenstein_runtime>  (694) 
3.117381

$$$$
C7587-P191
     RDKit          3D

 12 12  0  0  0  0  0  0  0  0999 V2000
   12.3306   16.2045   22.8801 C   0  0  0  0  0  0  0  0  0  0  0  0
   10.8203   16.3724   22.9048 C   0  0  0  0  0  0  0  0  0  0  0  0
   10.0861   15.1233   22.4422 C   0  0  0  0  0  0  0  0  0  0  0  0
    9.7954   13.9762   23.7737 S   0  0  0  0  0  0  0  0  0  0  0  0
   11.0318   13.6824   24.4640 O   0  0  0  0  0  0  0  0  0  0  0  0
    8.6136   14.3549   24.5166 O   0  0  0  0  0  0  0  0  0  0  0  0
    9.3796   12.5689   22.9140 N   0  0  0  0  0  0  0  0  0  0  0  0
    9.0443   11.4775   23.8517 C   0  0  2  0  0  0  0  0  0  0  0  0
    9.3823   10.1021   23.3201 C   0  0  0  0  0  0  0  0  0  0  0  0
    8.2868    9.2030   23.8569 C   0  0  0  0  0  0  0  0  0  0  0  0
    7.4750   10.0148   24.7648 N   0  0  0  0  0  0  0  0  0  0  0  0
    7.5994   11.3995   24.2940 C   0  0  0  0  0  0  0  0  0  0  0  0
  1  2  1  0
  2  3  1  0
  3  4  1  0
  4  5  2  0
  4  6  2  0
  4  7  1  0
  8  7  1  6
  8  9  1  0
  9 10  1  0
 10 11  1  0
 11 12  1  0
 12  8  1  0
M  END
>  <ref_pdb>  (695) 
A3509b

>  <subsites>  (695) 
1 - Active Site

>  <HIPPO Compound ID>  (695) 
2063

>  <energy_score>  (695) 
-29.548778

>  <fragmenstein_mode>  (695) 
expansion

>  <scratch_subdir>  (695) 
/opt/xchem-fragalysis-2/maxwin/BulkDock/SCRATCH/512202/C7587-P191

>  <smiles>  (695) 
CCCS(=O)(=O)N[C@@H]1CCNC1

>  <alias>  (695) 
C7587-P191

>  <ref_mols>  (695) 
A0719a,A3509b

>  <inspiration_score>  (695) 
None

>  <tags>  (695) 
BulkDock Fragalysis export,fragmenstein_placed,openbind_a71ev2a_c1_knitwork_impure,openbind_a71ev2a_c1_scaffolds

>  <fragmenstein_outcome>  (695) 
acceptable

>  <fragmenstein_error>  (695) 


>  <distance_score>  (695) 
0.781731

>  <inchikey>  (695) 
ZGUIGBFPAXLLGR-UHFFFAOYSA-N

>  <name>  (695) 
C7587-P191

>  <HIPPO Pose ID>  (695) 
389740

>  <Energy>  (695) 
-43.679542

>  <exports>  (695) 
['/opt/xchem-fragalysis-2/maxwin/BulkDock/OUTPUTS/openbind_a71ev2a_c1_knitwork_impure_165VXJF.sdf', '/opt/xchem-fragalysis-2/maxwin/BulkDock/OUTPUTS/openbind_a71ev2a_c1_knitwork_impure_1B07QS4.sdf', '/opt/xchem-fragalysis-2/maxwin/BulkDock/OUTPUTS/openbind_a71ev2a_c1_knitwork_impure_1B07X5R.sdf', '/opt/xchem-fragalysis-2/maxwin/openbind-hippo/a71ev2a/openbind_a71ev2a_c1_scaffold_products.sdf', '/opt/xchem-fragalysis-2/maxwin/openbind-hippo/a71ev2a/cycle_01/bulkdock/openbind_a71ev2a_c1_scaffold_products.sdf', '/opt/xchem-fragalysis-2/maxwin/openbind-hippo/a71ev2a/cycle_01/bulkdock/openbind_a71ev2a_c1_scaffolds.sdf']

>  <fragmenstein_runtime>  (695) 
1.60421

$$$$
C7633-P191
     RDKit          3D

 13 13  0  0  0  0  0  0  0  0999 V2000
    7.7722   15.2375   26.4662 C   0  0  0  0  0  0  0  0  0  0  0  0
    8.3357   15.0046   25.0683 C   0  0  0  0  0  0  0  0  0  0  0  0
    7.5321   13.9301   24.3259 C   0  0  2  0  0  0  0  0  0  0  0  0
    8.1587   12.5007   24.5087 C   0  0  0  0  0  0  0  0  0  0  0  0
    9.2385   12.0793   23.5047 C   0  0  0  0  0  0  0  0  0  0  0  0
    9.5409   10.5757   23.3906 C   0  0  0  0  0  0  0  0  0  0  0  0
    8.4656    9.5777   23.7802 C   0  0  0  0  0  0  0  0  0  0  0  0
    7.5102   10.0661   24.8424 C   0  0  0  0  0  0  0  0  0  0  0  0
    7.0425   11.4744   24.5758 C   0  0  0  0  0  0  0  0  0  0  0  0
    7.1266   14.4513   22.6305 S   0  0  0  0  0  0  0  0  0  0  0  0
    8.5779   15.0227   22.0356 N   0  0  0  0  0  0  0  0  0  0  0  0
    6.7756   13.3074   21.8231 O   0  0  0  0  0  0  0  0  0  0  0  0
    6.2530   15.6024   22.6596 O   0  0  0  0  0  0  0  0  0  0  0  0
  1  2  1  0
  3  2  1  6
  3  4  1  0
  4  5  1  0
  5  6  1  0
  6  7  1  0
  7  8  1  0
  8  9  1  0
  3 10  1  0
 10 11  1  0
 10 12  2  0
 10 13  2  0
  9  4  1  0
M  END
>  <ref_pdb>  (696) 
A3509b

>  <subsites>  (696) 
1 - Active Site

>  <HIPPO Compound ID>  (696) 
8882

>  <energy_score>  (696) 
-45.96973

>  <fragmenstein_mode>  (696) 
expansion

>  <scratch_subdir>  (696) 
/opt/xchem-fragalysis-2/maxwin/BulkDock/SCRATCH/512202/C7633-P191

>  <smiles>  (696) 
CC[C@H](C1CCCCC1)S(N)(=O)=O

>  <alias>  (696) 
C7633-P191

>  <ref_mols>  (696) 
A0719a,A3509b

>  <inspiration_score>  (696) 
None

>  <tags>  (696) 
BulkDock Fragalysis export,fragmenstein_placed,openbind_a71ev2a_c1_knitwork_impure,openbind_a71ev2a_c1_scaffolds

>  <fragmenstein_outcome>  (696) 
acceptable

>  <fragmenstein_error>  (696) 


>  <distance_score>  (696) 
0.950303

>  <inchikey>  (696) 
JPWQZFKBNRFGNF-UHFFFAOYSA-N

>  <name>  (696) 
C7633-P191

>  <HIPPO Pose ID>  (696) 
389762

>  <Energy>  (696) 
-62.937463

>  <exports>  (696) 
['/opt/xchem-fragalysis-2/maxwin/BulkDock/OUTPUTS/openbind_a71ev2a_c1_knitwork_impure_165VXJF.sdf', '/opt/xchem-fragalysis-2/maxwin/BulkDock/OUTPUTS/openbind_a71ev2a_c1_knitwork_impure_1B07QS4.sdf', '/opt/xchem-fragalysis-2/maxwin/BulkDock/OUTPUTS/openbind_a71ev2a_c1_knitwork_impure_1B07X5R.sdf', '/opt/xchem-fragalysis-2/maxwin/openbind-hippo/a71ev2a/openbind_a71ev2a_c1_scaffold_products.sdf', '/opt/xchem-fragalysis-2/maxwin/openbind-hippo/a71ev2a/cycle_01/bulkdock/openbind_a71ev2a_c1_scaffold_products.sdf', '/opt/xchem-fragalysis-2/maxwin/openbind-hippo/a71ev2a/cycle_01/bulkdock/openbind_a71ev2a_c1_scaffolds.sdf']

>  <fragmenstein_runtime>  (696) 
115.927502

$$$$
C7652-P191
     RDKit          3D

 12 12  0  0  0  0  0  0  0  0999 V2000
   12.1736   16.2587   22.9068 C   0  0  0  0  0  0  0  0  0  0  0  0
   10.6570   16.1346   22.8308 C   0  0  0  0  0  0  0  0  0  0  0  0
   10.1888   14.6905   22.6635 C   0  0  0  0  0  0  0  0  0  0  0  0
    9.9079   13.8906   24.2413 S   0  0  0  0  0  0  0  0  0  0  0  0
   11.0307   14.1835   25.1029 O   0  0  0  0  0  0  0  0  0  0  0  0
    8.5525   14.1420   24.6726 O   0  0  0  0  0  0  0  0  0  0  0  0
   10.0565   12.2756   23.8707 N   0  0  0  0  0  0  0  0  0  0  0  0
    8.9073   11.4691   23.4884 C   0  0  2  0  0  0  0  0  0  0  0  0
    7.9502   11.2121   24.6025 C   0  0  0  0  0  0  0  0  0  0  0  0
    7.6325    9.9175   24.7117 C   0  0  0  0  0  0  0  0  0  0  0  0
    8.3915    9.0809   23.7440 C   0  0  0  0  0  0  0  0  0  0  0  0
    9.4051   10.0519   23.1675 C   0  0  0  0  0  0  0  0  0  0  0  0
  1  2  1  0
  2  3  1  0
  3  4  1  0
  4  5  2  0
  4  6  2  0
  4  7  1  0
  8  7  1  1
  8  9  1  0
  9 10  2  0
 10 11  1  0
 11 12  1  0
 12  8  1  0
M  END
>  <ref_pdb>  (697) 
A3509b

>  <subsites>  (697) 
1 - Active Site

>  <HIPPO Compound ID>  (697) 
20148

>  <energy_score>  (697) 
-17.558707

>  <fragmenstein_mode>  (697) 
expansion

>  <scratch_subdir>  (697) 
/opt/xchem-fragalysis-2/maxwin/BulkDock/SCRATCH/512202/C7652-P191

>  <smiles>  (697) 
CCCS(=O)(=O)N[C@@H]1C=CCC1

>  <alias>  (697) 
C7652-P191

>  <ref_mols>  (697) 
A0719a,A3509b

>  <inspiration_score>  (697) 
None

>  <tags>  (697) 
BulkDock Fragalysis export,fragmenstein_placed,openbind_a71ev2a_c1_knitwork_impure,openbind_a71ev2a_c1_scaffolds

>  <fragmenstein_outcome>  (697) 
acceptable

>  <fragmenstein_error>  (697) 


>  <distance_score>  (697) 
0.972129

>  <inchikey>  (697) 
GPLKGJZEUOGKRW-UHFFFAOYSA-N

>  <name>  (697) 
C7652-P191

>  <HIPPO Pose ID>  (697) 
389779

>  <Energy>  (697) 
-71.97664

>  <exports>  (697) 
['/opt/xchem-fragalysis-2/maxwin/BulkDock/OUTPUTS/openbind_a71ev2a_c1_knitwork_impure_165VXJF.sdf', '/opt/xchem-fragalysis-2/maxwin/BulkDock/OUTPUTS/openbind_a71ev2a_c1_knitwork_impure_1B07QS4.sdf', '/opt/xchem-fragalysis-2/maxwin/BulkDock/OUTPUTS/openbind_a71ev2a_c1_knitwork_impure_1B07X5R.sdf', '/opt/xchem-fragalysis-2/maxwin/openbind-hippo/a71ev2a/openbind_a71ev2a_c1_scaffold_products.sdf', '/opt/xchem-fragalysis-2/maxwin/openbind-hippo/a71ev2a/cycle_01/bulkdock/openbind_a71ev2a_c1_scaffold_products.sdf', '/opt/xchem-fragalysis-2/maxwin/openbind-hippo/a71ev2a/cycle_01/bulkdock/openbind_a71ev2a_c1_scaffolds.sdf']

>  <fragmenstein_runtime>  (697) 
1.814897

$$$$
C7653-P191
     RDKit          3D

 13 13  0  0  0  0  0  0  0  0999 V2000
   12.3150   16.8587   22.0971 C   0  0  0  0  0  0  0  0  0  0  0  0
   11.5893   16.1430   23.2126 C   0  0  0  0  0  0  0  0  0  0  0  0
   10.7204   15.0432   22.6333 C   0  0  0  0  0  0  0  0  0  0  0  0
   10.1199   13.9865   23.9229 S   0  0  0  0  0  0  0  0  0  0  0  0
   11.2399   13.4600   24.6709 O   0  0  0  0  0  0  0  0  0  0  0  0
    9.0067   14.6057   24.6038 O   0  0  0  0  0  0  0  0  0  0  0  0
    9.5035   12.6996   23.0217 N   0  0  0  0  0  0  0  0  0  0  0  0
    8.9069   11.6593   23.8917 C   0  0  1  0  0  0  0  0  0  0  0  0
    7.4599   11.9789   24.2304 C   0  0  0  0  0  0  0  0  0  0  0  0
    6.8338   10.8479   24.9673 C   0  0  0  0  0  0  0  0  0  0  0  0
    7.2200    9.5831   24.7840 C   0  0  0  0  0  0  0  0  0  0  0  0
    8.3101    9.1579   23.8552 C   0  0  0  0  0  0  0  0  0  0  0  0
    9.1779   10.2784   23.3051 C   0  0  0  0  0  0  0  0  0  0  0  0
  1  2  1  0
  2  3  1  0
  3  4  1  0
  4  5  2  0
  4  6  2  0
  4  7  1  0
  8  7  1  6
  8  9  1  0
  9 10  1  0
 10 11  2  0
 11 12  1  0
 12 13  1  0
 13  8  1  0
M  END
>  <ref_pdb>  (698) 
A3509b

>  <subsites>  (698) 
1 - Active Site

>  <HIPPO Compound ID>  (698) 
7653

>  <energy_score>  (698) 
-31.720124

>  <fragmenstein_mode>  (698) 
expansion

>  <scratch_subdir>  (698) 
/opt/xchem-fragalysis-2/maxwin/BulkDock/SCRATCH/512202/C7653-P191

>  <smiles>  (698) 
CCCS(=O)(=O)N[C@H]1CC=CCC1

>  <alias>  (698) 
C7653-P191

>  <ref_mols>  (698) 
A0719a,A3509b

>  <inspiration_score>  (698) 
None

>  <tags>  (698) 
BulkDock Fragalysis export,fragmenstein_placed,openbind_a71ev2a_c1_knitwork_impure,openbind_a71ev2a_c1_scaffolds

>  <fragmenstein_outcome>  (698) 
acceptable

>  <fragmenstein_error>  (698) 


>  <distance_score>  (698) 
0.971729

>  <inchikey>  (698) 
NCZWCIZJDPQWNM-UHFFFAOYSA-N

>  <name>  (698) 
C7653-P191

>  <HIPPO Pose ID>  (698) 
389780

>  <Energy>  (698) 
-46.146365

>  <exports>  (698) 
['/opt/xchem-fragalysis-2/maxwin/BulkDock/OUTPUTS/openbind_a71ev2a_c1_knitwork_impure_165VXJF.sdf', '/opt/xchem-fragalysis-2/maxwin/BulkDock/OUTPUTS/openbind_a71ev2a_c1_knitwork_impure_1B07QS4.sdf', '/opt/xchem-fragalysis-2/maxwin/BulkDock/OUTPUTS/openbind_a71ev2a_c1_knitwork_impure_1B07X5R.sdf', '/opt/xchem-fragalysis-2/maxwin/openbind-hippo/a71ev2a/openbind_a71ev2a_c1_scaffold_products.sdf', '/opt/xchem-fragalysis-2/maxwin/openbind-hippo/a71ev2a/cycle_01/bulkdock/openbind_a71ev2a_c1_scaffold_products.sdf', '/opt/xchem-fragalysis-2/maxwin/openbind-hippo/a71ev2a/cycle_01/bulkdock/openbind_a71ev2a_c1_scaffolds.sdf']

>  <fragmenstein_runtime>  (698) 
2.261648

$$$$
C7654-P191
     RDKit          3D

 12 12  0  0  0  0  0  0  0  0999 V2000
   12.4261   16.0755   23.1420 C   0  0  0  0  0  0  0  0  0  0  0  0
   10.9214   16.2534   23.2278 C   0  0  0  0  0  0  0  0  0  0  0  0
   10.1830   15.0331   22.7124 C   0  0  0  0  0  0  0  0  0  0  0  0
    9.8978   13.8017   23.9729 S   0  0  0  0  0  0  0  0  0  0  0  0
   11.1175   13.5011   24.6834 O   0  0  0  0  0  0  0  0  0  0  0  0
    8.6862   14.1370   24.6851 O   0  0  0  0  0  0  0  0  0  0  0  0
    9.5876   12.4874   23.0075 N   0  0  0  0  0  0  0  0  0  0  0  0
    8.6772   11.4045   23.3859 C   0  0  1  0  0  0  0  0  0  0  0  0
    9.3985   10.0723   23.2865 C   0  0  0  0  0  0  0  0  0  0  0  0
    8.4421    8.9983   23.7379 C   0  0  0  0  0  0  0  0  0  0  0  0
    7.3230    9.7760   24.9329 S   0  0  0  0  0  0  0  0  0  0  0  0
    7.9648   11.4556   24.7206 C   0  0  0  0  0  0  0  0  0  0  0  0
  1  2  1  0
  2  3  1  0
  3  4  1  0
  4  5  2  0
  4  6  2  0
  4  7  1  0
  8  7  1  1
  8  9  1  0
  9 10  1  0
 10 11  1  0
 11 12  1  0
 12  8  1  0
M  END
>  <ref_pdb>  (699) 
A3509b

>  <subsites>  (699) 
1 - Active Site

>  <HIPPO Compound ID>  (699) 
7524

>  <energy_score>  (699) 
-20.728399

>  <fragmenstein_mode>  (699) 
expansion

>  <scratch_subdir>  (699) 
/opt/xchem-fragalysis-2/maxwin/BulkDock/SCRATCH/512202/C7654-P191

>  <smiles>  (699) 
CCCS(=O)(=O)N[C@H]1CCSC1

>  <alias>  (699) 
C7654-P191

>  <ref_mols>  (699) 
A0719a,A3509b

>  <inspiration_score>  (699) 
None

>  <tags>  (699) 
BulkDock Fragalysis export,fragmenstein_placed,openbind_a71ev2a_c1_knitwork_impure,openbind_a71ev2a_c1_scaffolds

>  <fragmenstein_outcome>  (699) 
acceptable

>  <fragmenstein_error>  (699) 


>  <distance_score>  (699) 
0.898679

>  <inchikey>  (699) 
GLYWQGPQWRVUJF-UHFFFAOYSA-N

>  <name>  (699) 
C7654-P191

>  <HIPPO Pose ID>  (699) 
389781

>  <Energy>  (699) 
-46.364046

>  <exports>  (699) 
['/opt/xchem-fragalysis-2/maxwin/BulkDock/OUTPUTS/openbind_a71ev2a_c1_knitwork_impure_165VXJF.sdf', '/opt/xchem-fragalysis-2/maxwin/BulkDock/OUTPUTS/openbind_a71ev2a_c1_knitwork_impure_1B07QS4.sdf', '/opt/xchem-fragalysis-2/maxwin/BulkDock/OUTPUTS/openbind_a71ev2a_c1_knitwork_impure_1B07X5R.sdf', '/opt/xchem-fragalysis-2/maxwin/openbind-hippo/a71ev2a/openbind_a71ev2a_c1_scaffold_products.sdf', '/opt/xchem-fragalysis-2/maxwin/openbind-hippo/a71ev2a/cycle_01/bulkdock/openbind_a71ev2a_c1_scaffold_products.sdf', '/opt/xchem-fragalysis-2/maxwin/openbind-hippo/a71ev2a/cycle_01/bulkdock/openbind_a71ev2a_c1_scaffolds.sdf']

>  <fragmenstein_runtime>  (699) 
1.829274

$$$$
C7479-P423
     RDKit          3D

 23 24  0  0  0  0  0  0  0  0999 V2000
    3.2977   12.5636   18.2267 C   0  0  0  0  0  0  0  0  0  0  0  0
    3.1378   12.7302   19.7363 C   0  0  0  0  0  0  0  0  0  0  0  0
    1.9927   11.8437   20.2316 C   0  0  0  0  0  0  0  0  0  0  0  0
    2.9033   14.1466   20.1205 C   0  0  0  0  0  0  0  0  0  0  0  0
    1.9284   14.7994   19.4189 O   0  0  0  0  0  0  0  0  0  0  0  0
    1.9412   16.0553   19.9200 C   0  0  0  0  0  0  0  0  0  0  0  0
    2.7766   16.2587   20.9140 N   0  0  0  0  0  0  0  0  0  0  0  0
    3.3967   15.0302   21.0691 C   0  0  0  0  0  0  0  0  0  0  0  0
    4.3887   14.8283   22.1630 C   0  0  0  0  0  0  0  0  0  0  0  0
    5.6491   15.4574   21.7887 N   0  0  0  0  0  0  0  0  0  0  0  0
    7.0523   14.6485   22.2134 S   0  0  0  0  0  0  0  0  0  0  0  0
    6.8005   13.2900   21.7518 O   0  0  0  0  0  0  0  0  0  0  0  0
    8.0549   15.3667   21.4579 O   0  0  0  0  0  0  0  0  0  0  0  0
    6.9594   14.8845   23.7257 N   0  0  0  0  0  0  0  0  0  0  0  0
    8.2940   14.5938   24.4288 S   0  0  2  0  0  0  0  0  0  0  0  0
    8.1298   15.2759   26.0659 C   0  0  0  0  0  0  0  0  0  0  0  0
    9.5825   15.0515   23.9532 O   0  0  0  0  0  0  0  0  0  0  0  0
    8.4628   12.8343   24.7871 C   0  0  0  0  0  0  0  0  0  0  0  0
    9.3820   12.1332   23.7824 C   0  0  0  0  0  0  0  0  0  0  0  0
    9.5958   10.6695   24.1507 C   0  0  0  0  0  0  0  0  0  0  0  0
    8.2868    9.9246   24.3340 C   0  0  0  0  0  0  0  0  0  0  0  0
    7.3095   10.6457   25.2505 C   0  0  0  0  0  0  0  0  0  0  0  0
    7.1212   12.1139   24.9072 C   0  0  0  0  0  0  0  0  0  0  0  0
  1  2  1  0
  2  3  1  0
  2  4  1  0
  4  5  1  0
  5  6  1  0
  6  7  2  0
  7  8  1  0
  8  9  1  0
  9 10  1  0
 10 11  1  0
 11 12  2  0
 11 13  2  0
 11 14  1  0
 14 15  2  0
 15 16  1  1
 15 17  2  0
 15 18  1  0
 18 19  1  0
 19 20  1  0
 20 21  1  0
 21 22  1  0
 22 23  1  0
  8  4  2  0
 23 18  1  0
M  END
>  <ref_pdb>  (700) 
A4650a

>  <subsites>  (700) 
1 - Active Site

>  <HIPPO Compound ID>  (700) 
8585

>  <energy_score>  (700) 
-244.539186

>  <fragmenstein_mode>  (700) 
expansion

>  <scratch_subdir>  (700) 
/opt/xchem-fragalysis-2/maxwin/BulkDock/SCRATCH/512202/C7479-P423

>  <smiles>  (700) 
CC(C)c1ocnc1CNS(=O)(=O)N=[S@](C)(=O)C1CCCCC1

>  <alias>  (700) 
C7479-P423

>  <ref_mols>  (700) 
A3623a,A4650a

>  <inspiration_score>  (700) 
None

>  <tags>  (700) 
BulkDock Fragalysis export,fragmenstein_placed,openbind_a71ev2a_c1_knitwork_impure,openbind_a71ev2a_c1_scaffolds

>  <fragmenstein_outcome>  (700) 
acceptable

>  <fragmenstein_error>  (700) 


>  <distance_score>  (700) 
0.918028

>  <inchikey>  (700) 
BRFFCOVLYYYHTQ-UHFFFAOYSA-N

>  <name>  (700) 
C7479-P423

>  <HIPPO Pose ID>  (700) 
390233

>  <Energy>  (700) 
-248.093454

>  <exports>  (700) 
['/opt/xchem-fragalysis-2/maxwin/BulkDock/OUTPUTS/openbind_a71ev2a_c1_knitwork_impure_165VXJF.sdf', '/opt/xchem-fragalysis-2/maxwin/BulkDock/OUTPUTS/openbind_a71ev2a_c1_knitwork_impure_1B07QS4.sdf', '/opt/xchem-fragalysis-2/maxwin/BulkDock/OUTPUTS/openbind_a71ev2a_c1_knitwork_impure_1B07X5R.sdf', '/opt/xchem-fragalysis-2/maxwin/openbind-hippo/a71ev2a/openbind_a71ev2a_c1_scaffold_products.sdf', '/opt/xchem-fragalysis-2/maxwin/openbind-hippo/a71ev2a/cycle_01/bulkdock/openbind_a71ev2a_c1_scaffold_products.sdf', '/opt/xchem-fragalysis-2/maxwin/openbind-hippo/a71ev2a/cycle_01/bulkdock/openbind_a71ev2a_c1_scaffolds.sdf']

>  <fragmenstein_runtime>  (700) 
4.390144

$$$$
C21692-P77
     RDKit          3D

 13 13  0  0  0  0  0  0  0  0999 V2000
    5.7479   15.5314   21.9556 N   0  0  0  0  0  0  0  0  0  0  0  0
    7.0984   14.7301   22.5750 S   0  0  0  0  0  0  0  0  0  0  0  0
    8.2190   15.5049   22.1098 O   0  0  0  0  0  0  0  0  0  0  0  0
    6.9024   13.3443   22.2097 O   0  0  0  0  0  0  0  0  0  0  0  0
    6.7731   15.0128   24.3007 C   0  0  0  0  0  0  0  0  0  0  0  0
    7.7627   14.3988   25.2699 C   0  0  0  0  0  0  0  0  0  0  0  0
    7.6109   12.8880   25.4197 C   0  0  0  0  0  0  0  0  0  0  0  0
    8.4244   12.0173   24.6039 N   0  0  0  0  0  0  0  0  0  0  0  0
    8.3632   10.5865   24.7808 C   0  0  0  0  0  0  0  0  0  0  0  0
    9.3691   10.0336   23.7865 C   0  0  0  0  0  0  0  0  0  0  0  0
   10.0819   11.1884   23.3508 N   0  0  0  0  0  0  0  0  0  0  0  0
    9.5190   12.3472   23.8217 C   0  0  0  0  0  0  0  0  0  0  0  0
    9.9522   13.4503   23.5666 O   0  0  0  0  0  0  0  0  0  0  0  0
  1  2  1  0
  2  3  2  0
  2  4  2  0
  2  5  1  0
  5  6  1  0
  6  7  1  0
  7  8  1  0
  8  9  1  0
  9 10  1  0
 10 11  1  0
 11 12  1  0
 12 13  2  0
 12  8  1  0
M  END
>  <ref_pdb>  (701) 
A0719a

>  <subsites>  (701) 
1 - Active Site

>  <HIPPO Compound ID>  (701) 
32018

>  <energy_score>  (701) 
-28.551738

>  <fragmenstein_mode>  (701) 
expansion

>  <scratch_subdir>  (701) 
/opt/xchem-fragalysis-2/maxwin/BulkDock/SCRATCH/512202/C21692-P77

>  <smiles>  (701) 
NS(=O)(=O)CCCN1CCNC1=O

>  <alias>  (701) 
C21692-P77

>  <ref_mols>  (701) 
A3895a,A0719a

>  <inspiration_score>  (701) 
None

>  <tags>  (701) 
BulkDock Fragalysis export,fragmenstein_placed,openbind_a71ev2a_c1_knitwork_impure,openbind_a71ev2a_c1_scaffolds

>  <fragmenstein_outcome>  (701) 
acceptable

>  <fragmenstein_error>  (701) 


>  <distance_score>  (701) 
0.808451

>  <inchikey>  (701) 
KFBTYOFOIPCZQH-UHFFFAOYSA-N

>  <name>  (701) 
C21692-P77

>  <HIPPO Pose ID>  (701) 
390476

>  <Energy>  (701) 
-142.122427

>  <exports>  (701) 
['/opt/xchem-fragalysis-2/maxwin/BulkDock/OUTPUTS/openbind_a71ev2a_c1_knitwork_impure_165VXJF.sdf', '/opt/xchem-fragalysis-2/maxwin/BulkDock/OUTPUTS/openbind_a71ev2a_c1_knitwork_impure_1B07QS4.sdf', '/opt/xchem-fragalysis-2/maxwin/BulkDock/OUTPUTS/openbind_a71ev2a_c1_knitwork_impure_1B07X5R.sdf', '/opt/xchem-fragalysis-2/maxwin/openbind-hippo/a71ev2a/openbind_a71ev2a_c1_scaffold_products.sdf', '/opt/xchem-fragalysis-2/maxwin/openbind-hippo/a71ev2a/cycle_01/bulkdock/openbind_a71ev2a_c1_scaffold_products.sdf', '/opt/xchem-fragalysis-2/maxwin/openbind-hippo/a71ev2a/cycle_01/bulkdock/openbind_a71ev2a_c1_scaffolds.sdf']

>  <fragmenstein_runtime>  (701) 
1.373761

$$$$
C9548-P384
     RDKit          3D

  9  9  0  0  0  0  0  0  0  0999 V2000
    7.2431   14.3281   27.1777 O   0  0  0  0  0  0  0  0  0  0  0  0
    7.0520   14.8739   26.0962 C   0  0  0  0  0  0  0  0  0  0  0  0
    7.7655   14.5149   24.8160 C   0  0  0  0  0  0  0  0  0  0  0  0
    8.8456   13.4496   24.9753 C   0  0  0  0  0  0  0  0  0  0  0  0
    8.3492   12.0424   24.9916 C   0  0  0  0  0  0  0  0  0  0  0  0
    7.2067   11.4991   25.6231 C   0  0  0  0  0  0  0  0  0  0  0  0
    7.1053   10.1798   25.4526 N   0  0  0  0  0  0  0  0  0  0  0  0
    8.2102    9.8255   24.6981 O   0  0  0  0  0  0  0  0  0  0  0  0
    8.9389   10.9360   24.4220 C   0  0  0  0  0  0  0  0  0  0  0  0
  1  2  2  0
  2  3  1  0
  3  4  1  0
  4  5  1  0
  5  6  1  0
  6  7  2  0
  7  8  1  0
  8  9  1  0
  9  5  2  0
M  END
>  <ref_pdb>  (702) 
A4509a

>  <subsites>  (702) 
1 - Active Site

>  <HIPPO Compound ID>  (702) 
9548

>  <energy_score>  (702) 
-14.869164

>  <fragmenstein_mode>  (702) 
expansion

>  <scratch_subdir>  (702) 
/opt/xchem-fragalysis-2/maxwin/BulkDock/SCRATCH/512202/C9548-P384

>  <smiles>  (702) 
O=CCCc1cnoc1

>  <alias>  (702) 
C9548-P384

>  <ref_mols>  (702) 
A4509a,A0556a

>  <inspiration_score>  (702) 
None

>  <tags>  (702) 
BulkDock Fragalysis export,fragmenstein_placed,openbind_a71ev2a_c1_knitwork_impure,openbind_a71ev2a_c1_scaffolds

>  <fragmenstein_outcome>  (702) 
acceptable

>  <fragmenstein_error>  (702) 


>  <distance_score>  (702) 
0.788619

>  <inchikey>  (702) 
PVLRSSNEEAZVOH-UHFFFAOYSA-N

>  <name>  (702) 
C9548-P384

>  <HIPPO Pose ID>  (702) 
390561

>  <Energy>  (702) 
-3.499317

>  <exports>  (702) 
['/opt/xchem-fragalysis-2/maxwin/BulkDock/OUTPUTS/openbind_a71ev2a_c1_knitwork_impure_165VXJF.sdf', '/opt/xchem-fragalysis-2/maxwin/BulkDock/OUTPUTS/openbind_a71ev2a_c1_knitwork_impure_1B07QS4.sdf', '/opt/xchem-fragalysis-2/maxwin/BulkDock/OUTPUTS/openbind_a71ev2a_c1_knitwork_impure_1B07X5R.sdf', '/opt/xchem-fragalysis-2/maxwin/openbind-hippo/a71ev2a/openbind_a71ev2a_c1_scaffold_products.sdf', '/opt/xchem-fragalysis-2/maxwin/openbind-hippo/a71ev2a/cycle_01/bulkdock/openbind_a71ev2a_c1_scaffold_products.sdf', '/opt/xchem-fragalysis-2/maxwin/openbind-hippo/a71ev2a/cycle_01/bulkdock/openbind_a71ev2a_c1_scaffolds.sdf']

>  <fragmenstein_runtime>  (702) 
0.881679

$$$$
C11630-P384
     RDKit          3D

  9  9  0  0  0  0  0  0  0  0999 V2000
    6.5848   14.7822   24.1280 C   0  0  0  0  0  0  0  0  0  0  0  0
    7.6269   14.5223   25.2000 C   0  0  0  0  0  0  0  0  0  0  0  0
    8.6429   13.4996   24.7317 C   0  0  0  0  0  0  0  0  0  0  0  0
    9.7145   13.8694   24.2532 O   0  0  0  0  0  0  0  0  0  0  0  0
    8.3260   12.0834   24.8573 C   0  0  0  0  0  0  0  0  0  0  0  0
    7.1932   11.4403   25.4018 C   0  0  0  0  0  0  0  0  0  0  0  0
    7.2837   10.1076   25.3686 N   0  0  0  0  0  0  0  0  0  0  0  0
    8.4759    9.8866   24.7810 N   0  0  0  0  0  0  0  0  0  0  0  0
    9.1261   11.0365   24.4469 C   0  0  0  0  0  0  0  0  0  0  0  0
  1  2  1  0
  2  3  1  0
  3  4  2  0
  3  5  1  0
  5  6  1  0
  6  7  2  0
  7  8  1  0
  8  9  1  0
  9  5  2  0
M  END
>  <ref_pdb>  (703) 
A4509a

>  <subsites>  (703) 
1 - Active Site

>  <HIPPO Compound ID>  (703) 
7132

>  <energy_score>  (703) 
-14.579573

>  <fragmenstein_mode>  (703) 
expansion

>  <scratch_subdir>  (703) 
/opt/xchem-fragalysis-2/maxwin/BulkDock/SCRATCH/512202/C11630-P384

>  <smiles>  (703) 
CCC(=O)c1cn[nH]c1

>  <alias>  (703) 
C11630-P384

>  <ref_mols>  (703) 
A4509a,A0556a

>  <inspiration_score>  (703) 
None

>  <tags>  (703) 
BulkDock Fragalysis export,fragmenstein_placed,openbind_a71ev2a_c1_knitwork_impure,openbind_a71ev2a_c1_scaffolds

>  <fragmenstein_outcome>  (703) 
acceptable

>  <fragmenstein_error>  (703) 


>  <distance_score>  (703) 
0.973642

>  <inchikey>  (703) 
ZYQQDEPLJNFLEF-UHFFFAOYSA-N

>  <name>  (703) 
C11630-P384

>  <HIPPO Pose ID>  (703) 
390570

>  <Energy>  (703) 
17.60124

>  <exports>  (703) 
['/opt/xchem-fragalysis-2/maxwin/BulkDock/OUTPUTS/openbind_a71ev2a_c1_knitwork_impure_165VXJF.sdf', '/opt/xchem-fragalysis-2/maxwin/BulkDock/OUTPUTS/openbind_a71ev2a_c1_knitwork_impure_1B07QS4.sdf', '/opt/xchem-fragalysis-2/maxwin/BulkDock/OUTPUTS/openbind_a71ev2a_c1_knitwork_impure_1B07X5R.sdf', '/opt/xchem-fragalysis-2/maxwin/openbind-hippo/a71ev2a/openbind_a71ev2a_c1_scaffold_products.sdf', '/opt/xchem-fragalysis-2/maxwin/openbind-hippo/a71ev2a/cycle_01/bulkdock/openbind_a71ev2a_c1_scaffold_products.sdf', '/opt/xchem-fragalysis-2/maxwin/openbind-hippo/a71ev2a/cycle_01/bulkdock/openbind_a71ev2a_c1_scaffolds.sdf']

>  <fragmenstein_runtime>  (703) 
1.008964

$$$$
C9539-P363
     RDKit          3D

 10 10  0  0  0  0  0  0  0  0999 V2000
    9.6774   10.5587   24.0770 C   0  0  0  0  0  0  0  0  0  0  0  0
    9.4641   12.0096   23.6912 C   0  0  0  0  0  0  0  0  0  0  0  0
    9.2958   12.9558   24.8599 C   0  0  0  0  0  0  0  0  0  0  0  0
   10.1272   13.8289   25.1101 O   0  0  0  0  0  0  0  0  0  0  0  0
    8.0503   12.8566   25.6765 C   0  0  0  0  0  0  0  0  0  0  0  0
    7.6486   13.9384   26.4508 C   0  0  0  0  0  0  0  0  0  0  0  0
    6.4841   13.8197   27.2068 C   0  0  0  0  0  0  0  0  0  0  0  0
    5.7666   12.6298   27.1738 C   0  0  0  0  0  0  0  0  0  0  0  0
    6.2440   11.6028   26.3784 C   0  0  0  0  0  0  0  0  0  0  0  0
    7.3632   11.6893   25.6261 N   0  0  0  0  0  0  0  0  0  0  0  0
  1  2  1  0
  2  3  1  0
  3  4  2  0
  3  5  1  0
  5  6  2  0
  6  7  1  0
  7  8  2  0
  8  9  1  0
  9 10  2  0
 10  5  1  0
M  END
>  <ref_pdb>  (704) 
A4445a

>  <subsites>  (704) 
1 - Active Site

>  <HIPPO Compound ID>  (704) 
9539

>  <energy_score>  (704) 
-6.079268

>  <fragmenstein_mode>  (704) 
expansion

>  <scratch_subdir>  (704) 
/opt/xchem-fragalysis-2/maxwin/BulkDock/SCRATCH/512202/C9539-P363

>  <smiles>  (704) 
CCC(=O)c1ccccn1

>  <alias>  (704) 
C9539-P363

>  <ref_mols>  (704) 
A4445a,A2629a

>  <inspiration_score>  (704) 
None

>  <tags>  (704) 
BulkDock Fragalysis export,fragmenstein_placed,openbind_a71ev2a_c1_knitwork_impure,openbind_a71ev2a_c1_scaffolds

>  <fragmenstein_outcome>  (704) 
acceptable

>  <fragmenstein_error>  (704) 


>  <distance_score>  (704) 
0.759332

>  <inchikey>  (704) 
ZHAZHKPVEROFLH-UHFFFAOYSA-N

>  <name>  (704) 
C9539-P363

>  <HIPPO Pose ID>  (704) 
390975

>  <Energy>  (704) 
48.041564

>  <exports>  (704) 
['/opt/xchem-fragalysis-2/maxwin/BulkDock/OUTPUTS/openbind_a71ev2a_c1_knitwork_impure_165VXJF.sdf', '/opt/xchem-fragalysis-2/maxwin/BulkDock/OUTPUTS/openbind_a71ev2a_c1_knitwork_impure_1B07QS4.sdf', '/opt/xchem-fragalysis-2/maxwin/BulkDock/OUTPUTS/openbind_a71ev2a_c1_knitwork_impure_1B07X5R.sdf', '/opt/xchem-fragalysis-2/maxwin/openbind-hippo/a71ev2a/openbind_a71ev2a_c1_scaffold_products.sdf', '/opt/xchem-fragalysis-2/maxwin/openbind-hippo/a71ev2a/cycle_01/bulkdock/openbind_a71ev2a_c1_scaffold_products.sdf', '/opt/xchem-fragalysis-2/maxwin/openbind-hippo/a71ev2a/cycle_01/bulkdock/openbind_a71ev2a_c1_scaffolds.sdf']

>  <fragmenstein_runtime>  (704) 
1.303281

$$$$
C9549-P363
     RDKit          3D

 10 10  0  0  0  0  0  0  0  0999 V2000
    9.4642   10.0057   23.0893 O   0  0  0  0  0  0  0  0  0  0  0  0
    9.8504   10.8653   23.8699 C   0  0  0  0  0  0  0  0  0  0  0  0
    9.5874   12.3308   23.6796 C   0  0  0  0  0  0  0  0  0  0  0  0
    9.3667   13.0295   25.0150 C   0  0  0  0  0  0  0  0  0  0  0  0
    8.0359   12.7822   25.6908 C   0  0  0  0  0  0  0  0  0  0  0  0
    7.4131   11.5320   25.7402 C   0  0  0  0  0  0  0  0  0  0  0  0
    6.2270   11.3951   26.4516 C   0  0  0  0  0  0  0  0  0  0  0  0
    5.6318   12.3953   27.1284 N   0  0  0  0  0  0  0  0  0  0  0  0
    6.2322   13.6000   27.0614 C   0  0  0  0  0  0  0  0  0  0  0  0
    7.4157   13.8359   26.3744 C   0  0  0  0  0  0  0  0  0  0  0  0
  1  2  2  0
  2  3  1  0
  3  4  1  0
  4  5  1  0
  5  6  2  0
  6  7  1  0
  7  8  2  0
  8  9  1  0
  9 10  2  0
 10  5  1  0
M  END
>  <ref_pdb>  (705) 
A4445a

>  <subsites>  (705) 
1 - Active Site

>  <HIPPO Compound ID>  (705) 
5945

>  <energy_score>  (705) 
-7.619067

>  <fragmenstein_mode>  (705) 
expansion

>  <scratch_subdir>  (705) 
/opt/xchem-fragalysis-2/maxwin/BulkDock/SCRATCH/512202/C9549-P363

>  <smiles>  (705) 
O=CCCc1ccncc1

>  <alias>  (705) 
C9549-P363

>  <ref_mols>  (705) 
A4445a,A2629a

>  <inspiration_score>  (705) 
None

>  <tags>  (705) 
BulkDock Fragalysis export,fragmenstein_placed,openbind_a71ev2a_c1_knitwork_impure,openbind_a71ev2a_c1_scaffolds

>  <fragmenstein_outcome>  (705) 
acceptable

>  <fragmenstein_error>  (705) 


>  <distance_score>  (705) 
0.933607

>  <inchikey>  (705) 
WKDSMLUYURMGRK-UHFFFAOYSA-N

>  <name>  (705) 
C9549-P363

>  <HIPPO Pose ID>  (705) 
390983

>  <Energy>  (705) 
19.487732

>  <exports>  (705) 
['/opt/xchem-fragalysis-2/maxwin/BulkDock/OUTPUTS/openbind_a71ev2a_c1_knitwork_impure_165VXJF.sdf', '/opt/xchem-fragalysis-2/maxwin/BulkDock/OUTPUTS/openbind_a71ev2a_c1_knitwork_impure_1B07QS4.sdf', '/opt/xchem-fragalysis-2/maxwin/BulkDock/OUTPUTS/openbind_a71ev2a_c1_knitwork_impure_1B07X5R.sdf', '/opt/xchem-fragalysis-2/maxwin/openbind-hippo/a71ev2a/openbind_a71ev2a_c1_scaffold_products.sdf', '/opt/xchem-fragalysis-2/maxwin/openbind-hippo/a71ev2a/cycle_01/bulkdock/openbind_a71ev2a_c1_scaffold_products.sdf', '/opt/xchem-fragalysis-2/maxwin/openbind-hippo/a71ev2a/cycle_01/bulkdock/openbind_a71ev2a_c1_scaffolds.sdf']

>  <fragmenstein_runtime>  (705) 
1.150883

$$$$
C3759-P487
     RDKit          3D

 12 13  0  0  0  0  0  0  0  0999 V2000
    6.3577   10.7852   26.1293 S   0  0  0  0  0  0  0  0  0  0  0  0
    7.5597   10.8441   25.0124 C   0  0  0  0  0  0  0  0  0  0  0  0
    8.2874    9.8531   24.4346 N   0  0  0  0  0  0  0  0  0  0  0  0
    9.1892   10.3801   23.5645 N   0  0  0  0  0  0  0  0  0  0  0  0
    8.9709   11.6569   23.6415 C   0  0  0  0  0  0  0  0  0  0  0  0
    9.7227   12.7215   22.8944 C   0  0  2  0  0  0  0  0  0  0  0  0
   10.9472   13.2183   23.6672 C   0  0  0  0  0  0  0  0  0  0  0  0
   10.7668   14.6237   24.2250 C   0  0  0  0  0  0  0  0  0  0  0  0
    9.3188   14.8780   24.6073 C   0  0  0  0  0  0  0  0  0  0  0  0
    8.4282   14.8122   23.4589 N   0  0  0  0  0  0  0  0  0  0  0  0
    8.8219   13.8656   22.4206 C   0  0  0  0  0  0  0  0  0  0  0  0
    7.9947   12.0213   24.5032 O   0  0  0  0  0  0  0  0  0  0  0  0
  1  2  2  0
  2  3  1  0
  3  4  1  0
  4  5  2  0
  6  5  1  1
  6  7  1  0
  7  8  1  0
  8  9  1  0
  9 10  1  0
 10 11  1  0
  5 12  1  0
 12  2  1  0
 11  6  1  0
M  END
>  <ref_pdb>  (706) 
A4846a

>  <subsites>  (706) 
1 - Active Site

>  <HIPPO Compound ID>  (706) 
5642

>  <energy_score>  (706) 
-15.778217

>  <fragmenstein_mode>  (706) 
expansion

>  <scratch_subdir>  (706) 
/opt/xchem-fragalysis-2/maxwin/BulkDock/SCRATCH/512203/C3759-P487

>  <smiles>  (706) 
S=c1[nH]nc([C@@H]2CCCNC2)o1

>  <alias>  (706) 
C3759-P487

>  <ref_mols>  (706) 
A0556a,A4846a

>  <inspiration_score>  (706) 
None

>  <tags>  (706) 
BulkDock Fragalysis export,fragmenstein_placed,openbind_a71ev2a_c1_knitwork_impure,openbind_a71ev2a_c1_scaffolds

>  <fragmenstein_outcome>  (706) 
acceptable

>  <fragmenstein_error>  (706) 


>  <distance_score>  (706) 
0.982861

>  <inchikey>  (706) 
QHGGWPPDZUPZIG-UHFFFAOYSA-N

>  <name>  (706) 
C3759-P487

>  <HIPPO Pose ID>  (706) 
391130

>  <Energy>  (706) 
18.577608

>  <exports>  (706) 
['/opt/xchem-fragalysis-2/maxwin/BulkDock/OUTPUTS/openbind_a71ev2a_c1_knitwork_impure_165VXJF.sdf', '/opt/xchem-fragalysis-2/maxwin/BulkDock/OUTPUTS/openbind_a71ev2a_c1_knitwork_impure_1B07QS4.sdf', '/opt/xchem-fragalysis-2/maxwin/BulkDock/OUTPUTS/openbind_a71ev2a_c1_knitwork_impure_1B07X5R.sdf', '/opt/xchem-fragalysis-2/maxwin/openbind-hippo/a71ev2a/openbind_a71ev2a_c1_scaffold_products.sdf', '/opt/xchem-fragalysis-2/maxwin/openbind-hippo/a71ev2a/cycle_01/bulkdock/openbind_a71ev2a_c1_scaffold_products.sdf', '/opt/xchem-fragalysis-2/maxwin/openbind-hippo/a71ev2a/cycle_01/bulkdock/openbind_a71ev2a_c1_scaffolds.sdf']

>  <fragmenstein_runtime>  (706) 
1.27026

$$$$
C7640-P153
     RDKit          3D

 12 12  0  0  0  0  0  0  0  0999 V2000
    6.9004   15.0758   26.7460 C   0  0  0  0  0  0  0  0  0  0  0  0
    7.5810   15.1873   25.3945 C   0  0  0  0  0  0  0  0  0  0  0  0
    6.6560   14.7598   24.2650 C   0  0  0  0  0  0  0  0  0  0  0  0
    7.5267   14.3729   22.7508 S   0  0  0  0  0  0  0  0  0  0  0  0
    8.6620   15.2540   22.6043 O   0  0  0  0  0  0  0  0  0  0  0  0
    6.5795   14.1937   21.6745 O   0  0  0  0  0  0  0  0  0  0  0  0
    8.1916   12.8428   22.9068 N   0  0  0  0  0  0  0  0  0  0  0  0
    8.7876   12.2878   24.1319 C   0  0  0  0  0  0  0  0  0  0  0  0
    7.7560   11.7434   25.1106 C   0  0  0  0  0  0  0  0  0  0  0  0
    7.9439   10.2403   25.2261 C   0  0  0  0  0  0  0  0  0  0  0  0
    8.8940    9.8258   24.1240 C   0  0  0  0  0  0  0  0  0  0  0  0
    9.6300   11.0844   23.7161 C   0  0  0  0  0  0  0  0  0  0  0  0
  1  2  1  0
  2  3  1  0
  3  4  1  0
  4  5  2  0
  4  6  2  0
  4  7  1  0
  7  8  1  0
  8  9  1  0
  9 10  1  0
 10 11  1  0
 11 12  1  0
 12  8  1  0
M  END
>  <ref_pdb>  (707) 
A3207a

>  <subsites>  (707) 
1 - Active Site

>  <HIPPO Compound ID>  (707) 
25792

>  <energy_score>  (707) 
-15.856504

>  <fragmenstein_mode>  (707) 
expansion

>  <scratch_subdir>  (707) 
/opt/xchem-fragalysis-2/maxwin/BulkDock/SCRATCH/512203/C7640-P153

>  <smiles>  (707) 
CCCS(=O)(=O)NC1CCCC1

>  <alias>  (707) 
C7640-P153

>  <ref_mols>  (707) 
A3207a,A0719a

>  <inspiration_score>  (707) 
None

>  <tags>  (707) 
BulkDock Fragalysis export,fragmenstein_placed,openbind_a71ev2a_c1_knitwork_impure,openbind_a71ev2a_c1_scaffolds

>  <fragmenstein_outcome>  (707) 
acceptable

>  <fragmenstein_error>  (707) 


>  <distance_score>  (707) 
0.997727

>  <inchikey>  (707) 
IMNXQIZMBRQERC-UHFFFAOYSA-N

>  <name>  (707) 
C7640-P153

>  <HIPPO Pose ID>  (707) 
391357

>  <Energy>  (707) 
-47.878415

>  <exports>  (707) 
['/opt/xchem-fragalysis-2/maxwin/BulkDock/OUTPUTS/openbind_a71ev2a_c1_knitwork_impure_165VXJF.sdf', '/opt/xchem-fragalysis-2/maxwin/BulkDock/OUTPUTS/openbind_a71ev2a_c1_knitwork_impure_1B07QS4.sdf', '/opt/xchem-fragalysis-2/maxwin/BulkDock/OUTPUTS/openbind_a71ev2a_c1_knitwork_impure_1B07X5R.sdf', '/opt/xchem-fragalysis-2/maxwin/openbind-hippo/a71ev2a/openbind_a71ev2a_c1_scaffold_products.sdf', '/opt/xchem-fragalysis-2/maxwin/openbind-hippo/a71ev2a/cycle_01/bulkdock/openbind_a71ev2a_c1_scaffold_products.sdf', '/opt/xchem-fragalysis-2/maxwin/openbind-hippo/a71ev2a/cycle_01/bulkdock/openbind_a71ev2a_c1_scaffolds.sdf']

>  <fragmenstein_runtime>  (707) 
8.487933

$$$$
C7643-P153
     RDKit          3D

 13 14  0  0  0  0  0  0  0  0999 V2000
    7.0089   15.2909   26.8572 C   0  0  0  0  0  0  0  0  0  0  0  0
    7.9633   15.0278   25.7096 C   0  0  0  0  0  0  0  0  0  0  0  0
    7.2061   14.6506   24.4486 C   0  0  0  0  0  0  0  0  0  0  0  0
    8.2695   13.9923   23.1759 S   0  0  0  0  0  0  0  0  0  0  0  0
    9.1214   15.0516   22.6848 O   0  0  0  0  0  0  0  0  0  0  0  0
    7.4586   13.2041   22.2706 O   0  0  0  0  0  0  0  0  0  0  0  0
    9.3092   12.9309   24.0946 N   0  0  0  0  0  0  0  0  0  0  0  0
    8.8830   11.5171   24.1404 C   0  0  2  0  0  0  0  0  0  0  0  0
    7.6142   11.3032   24.9279 C   0  0  0  0  0  0  0  0  0  0  0  0
    7.5828    9.8655   25.4315 C   0  0  0  0  0  0  0  0  0  0  0  0
    8.5860    9.1285   24.5692 C   0  0  0  0  0  0  0  0  0  0  0  0
    9.5800   10.1878   24.2094 C   0  0  1  0  0  0  0  0  0  0  0  0
    9.3825   10.7814   22.9037 C   0  0  0  0  0  0  0  0  0  0  0  0
  1  2  1  0
  2  3  1  0
  3  4  1  0
  4  5  2  0
  4  6  2  0
  4  7  1  0
  8  7  1  1
  8  9  1  0
  9 10  1  0
 10 11  1  0
 12 11  1  6
 12 13  1  0
 12  8  1  0
 13  8  1  0
M  END
>  <ref_pdb>  (708) 
A3207a

>  <subsites>  (708) 
1 - Active Site

>  <HIPPO Compound ID>  (708) 
10832

>  <energy_score>  (708) 
-16.929958

>  <fragmenstein_mode>  (708) 
expansion

>  <scratch_subdir>  (708) 
/opt/xchem-fragalysis-2/maxwin/BulkDock/SCRATCH/512203/C7643-P153

>  <smiles>  (708) 
CCCS(=O)(=O)N[C@]12CCC[C@H]1C2

>  <alias>  (708) 
C7643-P153

>  <ref_mols>  (708) 
A3207a,A0719a

>  <inspiration_score>  (708) 
None

>  <tags>  (708) 
BulkDock Fragalysis export,fragmenstein_placed,openbind_a71ev2a_c1_knitwork_impure,openbind_a71ev2a_c1_scaffolds

>  <fragmenstein_outcome>  (708) 
acceptable

>  <fragmenstein_error>  (708) 


>  <distance_score>  (708) 
0.97269

>  <inchikey>  (708) 
XNDSEHCZSDWHNY-UHFFFAOYSA-N

>  <name>  (708) 
C7643-P153

>  <HIPPO Pose ID>  (708) 
391360

>  <Energy>  (708) 
-14.719035

>  <exports>  (708) 
['/opt/xchem-fragalysis-2/maxwin/BulkDock/OUTPUTS/openbind_a71ev2a_c1_knitwork_impure_165VXJF.sdf', '/opt/xchem-fragalysis-2/maxwin/BulkDock/OUTPUTS/openbind_a71ev2a_c1_knitwork_impure_1B07QS4.sdf', '/opt/xchem-fragalysis-2/maxwin/BulkDock/OUTPUTS/openbind_a71ev2a_c1_knitwork_impure_1B07X5R.sdf', '/opt/xchem-fragalysis-2/maxwin/openbind-hippo/a71ev2a/openbind_a71ev2a_c1_scaffold_products.sdf', '/opt/xchem-fragalysis-2/maxwin/openbind-hippo/a71ev2a/cycle_01/bulkdock/openbind_a71ev2a_c1_scaffold_products.sdf', '/opt/xchem-fragalysis-2/maxwin/openbind-hippo/a71ev2a/cycle_01/bulkdock/openbind_a71ev2a_c1_scaffolds.sdf']

>  <fragmenstein_runtime>  (708) 
260.150043

$$$$
C7664-P153
     RDKit          3D

 11 11  0  0  0  0  0  0  0  0999 V2000
    9.1681    9.2695   23.9758 C   0  0  0  0  0  0  0  0  0  0  0  0
    9.3340   10.7523   23.7058 C   0  0  0  0  0  0  0  0  0  0  0  0
    8.2946   11.5963   24.4243 C   0  0  0  0  0  0  0  0  0  0  0  0
    8.0611   13.2213   23.7076 S   0  0  0  0  0  0  0  0  0  0  0  0
    7.5338   14.0569   24.7622 O   0  0  0  0  0  0  0  0  0  0  0  0
    7.3913   13.0726   22.4293 O   0  0  0  0  0  0  0  0  0  0  0  0
    9.6849   13.6276   23.3449 N   0  0  0  0  0  0  0  0  0  0  0  0
    9.7924   15.0286   23.2517 N   0  0  0  0  0  0  0  0  0  0  0  0
   10.3653   15.4817   21.9453 C   0  0  0  0  0  0  0  0  0  0  0  0
   11.7694   15.3607   22.5478 C   0  0  0  0  0  0  0  0  0  0  0  0
   11.0549   15.4714   23.9020 C   0  0  0  0  0  0  0  0  0  0  0  0
  1  2  1  0
  2  3  1  0
  3  4  1  0
  4  5  2  0
  4  6  2  0
  4  7  1  0
  7  8  1  0
  8  9  1  0
  9 10  1  0
 10 11  1  0
 11  8  1  0
M  END
>  <ref_pdb>  (709) 
A3207a

>  <subsites>  (709) 
1 - Active Site

>  <HIPPO Compound ID>  (709) 
32383

>  <energy_score>  (709) 
-29.081206

>  <fragmenstein_mode>  (709) 
expansion

>  <scratch_subdir>  (709) 
/opt/xchem-fragalysis-2/maxwin/BulkDock/SCRATCH/512203/C7664-P153

>  <smiles>  (709) 
CCCS(=O)(=O)NN1CCC1

>  <alias>  (709) 
C7664-P153

>  <ref_mols>  (709) 
A3207a,A0719a

>  <inspiration_score>  (709) 
None

>  <tags>  (709) 
BulkDock Fragalysis export,fragmenstein_placed,openbind_a71ev2a_c1_knitwork_impure,openbind_a71ev2a_c1_scaffolds

>  <fragmenstein_outcome>  (709) 
acceptable

>  <fragmenstein_error>  (709) 


>  <distance_score>  (709) 
0.974068

>  <inchikey>  (709) 
YZSYVMJRAIIIQD-UHFFFAOYSA-N

>  <name>  (709) 
C7664-P153

>  <HIPPO Pose ID>  (709) 
391371

>  <Energy>  (709) 
27.184901

>  <exports>  (709) 
['/opt/xchem-fragalysis-2/maxwin/BulkDock/OUTPUTS/openbind_a71ev2a_c1_knitwork_impure_165VXJF.sdf', '/opt/xchem-fragalysis-2/maxwin/BulkDock/OUTPUTS/openbind_a71ev2a_c1_knitwork_impure_1B07QS4.sdf', '/opt/xchem-fragalysis-2/maxwin/BulkDock/OUTPUTS/openbind_a71ev2a_c1_knitwork_impure_1B07X5R.sdf', '/opt/xchem-fragalysis-2/maxwin/openbind-hippo/a71ev2a/openbind_a71ev2a_c1_scaffold_products.sdf', '/opt/xchem-fragalysis-2/maxwin/openbind-hippo/a71ev2a/cycle_01/bulkdock/openbind_a71ev2a_c1_scaffold_products.sdf', '/opt/xchem-fragalysis-2/maxwin/openbind-hippo/a71ev2a/cycle_01/bulkdock/openbind_a71ev2a_c1_scaffolds.sdf']

>  <fragmenstein_runtime>  (709) 
7.336633

$$$$
C7678-P153
     RDKit          3D

 13 13  0  0  0  0  0  0  0  0999 V2000
   11.5328   16.5278   22.2199 N   0  0  0  0  0  0  0  0  0  0  0  0
   10.1806   15.6605   21.7138 S   0  0  0  0  0  0  0  0  0  0  0  0
    9.0781   16.5879   21.7238 O   0  0  0  0  0  0  0  0  0  0  0  0
   10.5884   14.9536   20.5264 O   0  0  0  0  0  0  0  0  0  0  0  0
   10.0153   14.5497   23.0918 C   0  0  0  0  0  0  0  0  0  0  0  0
    8.5645   14.1819   23.3438 C   0  0  0  0  0  0  0  0  0  0  0  0
    8.3984   13.3716   24.6266 C   0  0  0  0  0  0  0  0  0  0  0  0
    8.2896   11.8690   24.3662 C   0  0  0  0  0  0  0  0  0  0  0  0
    9.5622   11.2932   23.7563 C   0  0  0  0  0  0  0  0  0  0  0  0
    9.6796    9.7774   23.7717 C   0  0  0  0  0  0  0  0  0  0  0  0
    8.5341    9.0050   24.3684 C   0  0  0  0  0  0  0  0  0  0  0  0
    7.6469    9.6771   25.4095 C   0  0  0  0  0  0  0  0  0  0  0  0
    7.9155   11.1452   25.6404 C   0  0  0  0  0  0  0  0  0  0  0  0
  1  2  1  0
  2  3  2  0
  2  4  2  0
  2  5  1  0
  5  6  1  0
  6  7  1  0
  7  8  1  0
  8  9  1  0
  9 10  1  0
 10 11  1  0
 11 12  1  0
 12 13  1  0
 13  8  1  0
M  END
>  <ref_pdb>  (710) 
A3207a

>  <subsites>  (710) 
1 - Active Site

>  <HIPPO Compound ID>  (710) 
20648

>  <energy_score>  (710) 
-32.703188

>  <fragmenstein_mode>  (710) 
expansion

>  <scratch_subdir>  (710) 
/opt/xchem-fragalysis-2/maxwin/BulkDock/SCRATCH/512203/C7678-P153

>  <smiles>  (710) 
NS(=O)(=O)CCCC1CCCCC1

>  <alias>  (710) 
C7678-P153

>  <ref_mols>  (710) 
A3207a,A0719a

>  <inspiration_score>  (710) 
None

>  <tags>  (710) 
BulkDock Fragalysis export,fragmenstein_placed,openbind_a71ev2a_c1_knitwork_impure,openbind_a71ev2a_c1_scaffolds

>  <fragmenstein_outcome>  (710) 
acceptable

>  <fragmenstein_error>  (710) 


>  <distance_score>  (710) 
0.912111

>  <inchikey>  (710) 
ROOFZUAQKFMYKH-UHFFFAOYSA-N

>  <name>  (710) 
C7678-P153

>  <HIPPO Pose ID>  (710) 
391376

>  <Energy>  (710) 
-66.476823

>  <exports>  (710) 
['/opt/xchem-fragalysis-2/maxwin/BulkDock/OUTPUTS/openbind_a71ev2a_c1_knitwork_impure_165VXJF.sdf', '/opt/xchem-fragalysis-2/maxwin/BulkDock/OUTPUTS/openbind_a71ev2a_c1_knitwork_impure_1B07QS4.sdf', '/opt/xchem-fragalysis-2/maxwin/BulkDock/OUTPUTS/openbind_a71ev2a_c1_knitwork_impure_1B07X5R.sdf', '/opt/xchem-fragalysis-2/maxwin/openbind-hippo/a71ev2a/openbind_a71ev2a_c1_scaffold_products.sdf', '/opt/xchem-fragalysis-2/maxwin/openbind-hippo/a71ev2a/cycle_01/bulkdock/openbind_a71ev2a_c1_scaffold_products.sdf', '/opt/xchem-fragalysis-2/maxwin/openbind-hippo/a71ev2a/cycle_01/bulkdock/openbind_a71ev2a_c1_scaffolds.sdf']

>  <fragmenstein_runtime>  (710) 
4.344404

$$$$
C6703-P174
     RDKit          3D

 15 15  0  0  0  0  0  0  0  0999 V2000
   10.8045   12.3095   23.1613 C   0  0  0  0  0  0  0  0  0  0  0  0
   10.2923   13.7359   23.2965 C   0  0  0  0  0  0  0  0  0  0  0  0
   10.6802   14.2373   24.6989 C   0  0  0  0  0  0  0  0  0  0  0  0
   10.7686   14.6501   22.1198 C   0  0  0  0  0  0  0  0  0  0  0  0
   12.2609   14.9506   22.0644 C   0  0  0  0  0  0  0  0  0  0  0  0
   13.0130   14.4625   22.9049 O   0  0  0  0  0  0  0  0  0  0  0  0
   12.7260   15.8941   21.0692 C   0  0  0  0  0  0  0  0  0  0  0  0
   13.7368   16.8270   21.2112 C   0  0  0  0  0  0  0  0  0  0  0  0
   13.8995   17.5860   20.0850 N   0  0  0  0  0  0  0  0  0  0  0  0
   13.0679   17.0638   19.2161 C   0  0  0  0  0  0  0  0  0  0  0  0
   12.3122   16.0623   19.7667 N   0  0  0  0  0  0  0  0  0  0  0  0
    8.7743   13.6935   23.2740 C   0  0  0  0  0  0  0  0  0  0  0  0
    8.2641   14.8916   23.6323 F   0  0  0  0  0  0  0  0  0  0  0  0
    8.2984   12.7676   24.1389 F   0  0  0  0  0  0  0  0  0  0  0  0
    8.2671   13.3930   22.0606 F   0  0  0  0  0  0  0  0  0  0  0  0
  1  2  1  0
  2  3  1  0
  2  4  1  0
  4  5  1  0
  5  6  2  0
  5  7  1  0
  7  8  2  0
  8  9  1  0
  9 10  2  0
 10 11  1  0
  2 12  1  0
 12 13  1  0
 12 14  1  0
 12 15  1  0
 11  7  1  0
M  END
>  <ref_pdb>  (711) 
A3371a

>  <subsites>  (711) 
1 - Active Site

>  <HIPPO Compound ID>  (711) 
10686

>  <energy_score>  (711) 
-17.12576

>  <fragmenstein_mode>  (711) 
expansion

>  <scratch_subdir>  (711) 
/opt/xchem-fragalysis-2/maxwin/BulkDock/SCRATCH/512203/C6703-P174

>  <smiles>  (711) 
CC(C)(CC(=O)c1cnc[nH]1)C(F)(F)F

>  <alias>  (711) 
C6703-P174

>  <ref_mols>  (711) 
A1775a,A3371a

>  <inspiration_score>  (711) 
None

>  <tags>  (711) 
BulkDock Fragalysis export,fragmenstein_placed,openbind_a71ev2a_c1_knitwork_impure,openbind_a71ev2a_c1_scaffolds

>  <fragmenstein_outcome>  (711) 
acceptable

>  <fragmenstein_error>  (711) 


>  <distance_score>  (711) 
0.976377

>  <inchikey>  (711) 
OVGXOABIOXLLGL-UHFFFAOYSA-N

>  <name>  (711) 
C6703-P174

>  <HIPPO Pose ID>  (711) 
391387

>  <Energy>  (711) 
11.235272

>  <exports>  (711) 
['/opt/xchem-fragalysis-2/maxwin/BulkDock/OUTPUTS/openbind_a71ev2a_c1_knitwork_impure_165VXJF.sdf', '/opt/xchem-fragalysis-2/maxwin/BulkDock/OUTPUTS/openbind_a71ev2a_c1_knitwork_impure_1B07QS4.sdf', '/opt/xchem-fragalysis-2/maxwin/BulkDock/OUTPUTS/openbind_a71ev2a_c1_knitwork_impure_1B07X5R.sdf', '/opt/xchem-fragalysis-2/maxwin/openbind-hippo/a71ev2a/openbind_a71ev2a_c1_scaffold_products.sdf', '/opt/xchem-fragalysis-2/maxwin/openbind-hippo/a71ev2a/cycle_01/bulkdock/openbind_a71ev2a_c1_scaffold_products.sdf', '/opt/xchem-fragalysis-2/maxwin/openbind-hippo/a71ev2a/cycle_01/bulkdock/openbind_a71ev2a_c1_scaffolds.sdf']

>  <fragmenstein_runtime>  (711) 
74.323758

$$$$
C8169-P291
     RDKit          3D

 14 14  0  0  0  0  0  0  0  0999 V2000
    7.6627   12.8751   22.6808 O   0  0  0  0  0  0  0  0  0  0  0  0
    8.8506   13.0577   23.4819 S   0  0  0  0  0  0  0  0  0  0  0  0
    9.9092   12.0817   23.5312 O   0  0  0  0  0  0  0  0  0  0  0  0
    8.2955   13.1889   25.0657 N   0  0  0  0  0  0  0  0  0  0  0  0
    7.2780   14.2356   25.2834 C   0  0  0  0  0  0  0  0  0  0  0  0
    6.6850   14.1078   26.6842 C   0  0  0  0  0  0  0  0  0  0  0  0
    5.5825   13.0512   26.7951 C   0  0  0  0  0  0  0  0  0  0  0  0
    6.1810   11.3866   26.6248 Cl  0  0  0  0  0  0  0  0  0  0  0  0
    9.4490   14.5965   23.2640 N   0  0  0  0  0  0  0  0  0  0  0  0
   10.6966   14.9817   23.9366 C   0  0  0  0  0  0  0  0  0  0  0  0
   11.8860   14.8155   23.0039 C   0  0  0  0  0  0  0  0  0  0  0  0
   11.6855   15.5935   21.7076 C   0  0  0  0  0  0  0  0  0  0  0  0
   10.3873   15.1645   21.0363 C   0  0  0  0  0  0  0  0  0  0  0  0
    9.2029   15.3018   21.9814 C   0  0  0  0  0  0  0  0  0  0  0  0
  1  2  2  0
  2  3  2  0
  2  4  1  0
  4  5  1  0
  5  6  1  0
  6  7  1  0
  7  8  1  0
  2  9  1  0
  9 10  1  0
 10 11  1  0
 11 12  1  0
 12 13  1  0
 13 14  1  0
 14  9  1  0
M  END
>  <ref_pdb>  (712) 
A4308a

>  <subsites>  (712) 
1 - Active Site

>  <HIPPO Compound ID>  (712) 
1384

>  <energy_score>  (712) 
-98.263782

>  <fragmenstein_mode>  (712) 
expansion

>  <scratch_subdir>  (712) 
/opt/xchem-fragalysis-2/maxwin/BulkDock/SCRATCH/512203/C8169-P291

>  <smiles>  (712) 
O=S(=O)(NCCCCl)N1CCCCC1

>  <alias>  (712) 
C8169-P291

>  <ref_mols>  (712) 
A4308a,A0719a

>  <inspiration_score>  (712) 
None

>  <tags>  (712) 
BulkDock Fragalysis export,fragmenstein_placed,openbind_a71ev2a_c1_knitwork_impure,openbind_a71ev2a_c1_scaffolds

>  <fragmenstein_outcome>  (712) 
acceptable

>  <fragmenstein_error>  (712) 


>  <distance_score>  (712) 
0.676873

>  <inchikey>  (712) 
BYDQDZLINGKUEV-UHFFFAOYSA-N

>  <name>  (712) 
C8169-P291

>  <HIPPO Pose ID>  (712) 
391466

>  <Energy>  (712) 
-185.576254

>  <exports>  (712) 
['/opt/xchem-fragalysis-2/maxwin/BulkDock/OUTPUTS/openbind_a71ev2a_c1_knitwork_impure_165VXJF.sdf', '/opt/xchem-fragalysis-2/maxwin/BulkDock/OUTPUTS/openbind_a71ev2a_c1_knitwork_impure_1B07QS4.sdf', '/opt/xchem-fragalysis-2/maxwin/BulkDock/OUTPUTS/openbind_a71ev2a_c1_knitwork_impure_1B07X5R.sdf', '/opt/xchem-fragalysis-2/maxwin/openbind-hippo/a71ev2a/openbind_a71ev2a_c1_scaffold_products.sdf', '/opt/xchem-fragalysis-2/maxwin/openbind-hippo/a71ev2a/cycle_01/bulkdock/openbind_a71ev2a_c1_scaffold_products.sdf', '/opt/xchem-fragalysis-2/maxwin/openbind-hippo/a71ev2a/cycle_01/bulkdock/openbind_a71ev2a_c1_scaffolds.sdf']

>  <fragmenstein_runtime>  (712) 
2.134196

$$$$
C6269-P487
     RDKit          3D

 12 13  0  0  0  0  0  0  0  0999 V2000
   10.7162   15.2938   21.1129 C   0  0  0  0  0  0  0  0  0  0  0  0
   11.4910   14.9543   22.2114 C   0  0  0  0  0  0  0  0  0  0  0  0
   10.9251   14.2083   23.2407 C   0  0  0  0  0  0  0  0  0  0  0  0
    9.5829   13.8376   23.1403 C   0  0  0  0  0  0  0  0  0  0  0  0
    8.9302   12.9771   24.2127 C   0  0  1  0  0  0  0  0  0  0  0  0
    7.7042   13.7409   24.7603 C   0  0  0  0  0  0  0  0  0  0  0  0
    6.8509   12.8608   26.1179 S   0  0  0  0  0  0  0  0  0  0  0  0
    6.7200   11.2562   25.2909 C   0  0  0  0  0  0  0  0  0  0  0  0
    8.0300   10.7537   24.6903 C   0  0  0  0  0  0  0  0  0  0  0  0
    8.5930   11.6381   23.6799 N   0  0  0  0  0  0  0  0  0  0  0  0
    8.8078   14.1808   22.0818 N   0  0  0  0  0  0  0  0  0  0  0  0
    9.3940   14.8960   21.0986 C   0  0  0  0  0  0  0  0  0  0  0  0
  1  2  2  0
  2  3  1  0
  3  4  2  0
  5  4  1  6
  5  6  1  0
  6  7  1  0
  7  8  1  0
  8  9  1  0
  9 10  1  0
  4 11  1  0
 11 12  2  0
 12  1  1  0
 10  5  1  0
M  END
>  <ref_pdb>  (713) 
A4846a

>  <subsites>  (713) 
1 - Active Site

>  <HIPPO Compound ID>  (713) 
7067

>  <energy_score>  (713) 
-29.040292

>  <fragmenstein_mode>  (713) 
expansion

>  <scratch_subdir>  (713) 
/opt/xchem-fragalysis-2/maxwin/BulkDock/SCRATCH/512203/C6269-P487

>  <smiles>  (713) 
c1ccc([C@H]2CSCCN2)nc1

>  <alias>  (713) 
C6269-P487

>  <ref_mols>  (713) 
A3564a,A4846a

>  <inspiration_score>  (713) 
None

>  <tags>  (713) 
BulkDock Fragalysis export,fragmenstein_placed,openbind_a71ev2a_c1_knitwork_impure,openbind_a71ev2a_c1_scaffolds

>  <fragmenstein_outcome>  (713) 
acceptable

>  <fragmenstein_error>  (713) 


>  <distance_score>  (713) 
0.923528

>  <inchikey>  (713) 
WYVCMIYBKYUXJW-UHFFFAOYSA-N

>  <name>  (713) 
C6269-P487

>  <HIPPO Pose ID>  (713) 
391525

>  <Energy>  (713) 
85.094688

>  <exports>  (713) 
['/opt/xchem-fragalysis-2/maxwin/BulkDock/OUTPUTS/openbind_a71ev2a_c1_knitwork_impure_165VXJF.sdf', '/opt/xchem-fragalysis-2/maxwin/BulkDock/OUTPUTS/openbind_a71ev2a_c1_knitwork_impure_1B07QS4.sdf', '/opt/xchem-fragalysis-2/maxwin/BulkDock/OUTPUTS/openbind_a71ev2a_c1_knitwork_impure_1B07X5R.sdf', '/opt/xchem-fragalysis-2/maxwin/openbind-hippo/a71ev2a/openbind_a71ev2a_c1_scaffold_products.sdf', '/opt/xchem-fragalysis-2/maxwin/openbind-hippo/a71ev2a/cycle_01/bulkdock/openbind_a71ev2a_c1_scaffold_products.sdf', '/opt/xchem-fragalysis-2/maxwin/openbind-hippo/a71ev2a/cycle_01/bulkdock/openbind_a71ev2a_c1_scaffolds.sdf']

>  <fragmenstein_runtime>  (713) 
6.033431

$$$$
C725-P487
     RDKit          3D

 12 13  0  0  0  0  0  0  0  0999 V2000
   10.7050   15.2116   21.3629 C   0  0  0  0  0  0  0  0  0  0  0  0
   11.4377   14.8128   22.4699 C   0  0  0  0  0  0  0  0  0  0  0  0
   10.8119   14.0804   23.4759 C   0  0  0  0  0  0  0  0  0  0  0  0
    9.4572   13.7784   23.3481 C   0  0  0  0  0  0  0  0  0  0  0  0
    8.8372   12.9731   24.3586 N   0  0  0  0  0  0  0  0  0  0  0  0
    7.5071   13.5694   24.6316 C   0  0  0  0  0  0  0  0  0  0  0  0
    6.7983   12.8694   25.7881 C   0  0  0  0  0  0  0  0  0  0  0  0
    6.5298   11.0852   25.5354 S   0  0  0  0  0  0  0  0  0  0  0  0
    8.1081   10.6276   24.7582 C   0  0  0  0  0  0  0  0  0  0  0  0
    8.7082   11.6208   23.7699 C   0  0  0  0  0  0  0  0  0  0  0  0
    8.7302   14.1686   22.2780 N   0  0  0  0  0  0  0  0  0  0  0  0
    9.3667   14.8765   21.3177 C   0  0  0  0  0  0  0  0  0  0  0  0
  1  2  2  0
  2  3  1  0
  3  4  2  0
  4  5  1  0
  5  6  1  0
  6  7  1  0
  7  8  1  0
  8  9  1  0
  9 10  1  0
  4 11  1  0
 11 12  2  0
 12  1  1  0
 10  5  1  0
M  END
>  <ref_pdb>  (714) 
A4846a

>  <subsites>  (714) 
1 - Active Site

>  <HIPPO Compound ID>  (714) 
14773

>  <energy_score>  (714) 
-18.851248

>  <fragmenstein_mode>  (714) 
expansion

>  <scratch_subdir>  (714) 
/opt/xchem-fragalysis-2/maxwin/BulkDock/SCRATCH/512203/C725-P487

>  <smiles>  (714) 
c1ccc(N2CCSCC2)nc1

>  <alias>  (714) 
C725-P487

>  <ref_mols>  (714) 
A3564a,A4846a

>  <inspiration_score>  (714) 
None

>  <tags>  (714) 
BulkDock Fragalysis export,fragmenstein_placed,openbind_a71ev2a_c1_knitwork_impure,openbind_a71ev2a_c1_scaffolds

>  <fragmenstein_outcome>  (714) 
acceptable

>  <fragmenstein_error>  (714) 


>  <distance_score>  (714) 
0.967007

>  <inchikey>  (714) 
MIZHWJKJFPMAHV-UHFFFAOYSA-N

>  <name>  (714) 
C725-P487

>  <HIPPO Pose ID>  (714) 
391538

>  <Energy>  (714) 
30.726253

>  <exports>  (714) 
['/opt/xchem-fragalysis-2/maxwin/BulkDock/OUTPUTS/openbind_a71ev2a_c1_knitwork_impure_165VXJF.sdf', '/opt/xchem-fragalysis-2/maxwin/BulkDock/OUTPUTS/openbind_a71ev2a_c1_knitwork_impure_1B07QS4.sdf', '/opt/xchem-fragalysis-2/maxwin/BulkDock/OUTPUTS/openbind_a71ev2a_c1_knitwork_impure_1B07X5R.sdf', '/opt/xchem-fragalysis-2/maxwin/openbind-hippo/a71ev2a/openbind_a71ev2a_c1_scaffold_products.sdf', '/opt/xchem-fragalysis-2/maxwin/openbind-hippo/a71ev2a/cycle_01/bulkdock/openbind_a71ev2a_c1_scaffold_products.sdf', '/opt/xchem-fragalysis-2/maxwin/openbind-hippo/a71ev2a/cycle_01/bulkdock/openbind_a71ev2a_c1_scaffolds.sdf']

>  <fragmenstein_runtime>  (714) 
6.726286

$$$$
C744-P219
     RDKit          3D

 12 13  0  0  0  0  0  0  0  0999 V2000
    7.5227   11.0652   25.5660 C   0  0  0  0  0  0  0  0  0  0  0  0
    8.4437   10.6403   24.6868 C   0  0  0  0  0  0  0  0  0  0  0  0
    9.2921   11.5424   23.8299 C   0  0  0  0  0  0  0  0  0  0  0  0
    9.2227   12.9291   24.3156 N   0  0  0  0  0  0  0  0  0  0  0  0
    9.7653   13.7691   23.3007 C   0  0  0  0  0  0  0  0  0  0  0  0
   11.1481   13.9330   23.2324 C   0  0  0  0  0  0  0  0  0  0  0  0
   11.6945   14.7150   22.2170 C   0  0  0  0  0  0  0  0  0  0  0  0
   10.8500   15.3132   21.2934 C   0  0  0  0  0  0  0  0  0  0  0  0
    9.4908   15.1145   21.4343 C   0  0  0  0  0  0  0  0  0  0  0  0
    8.9415   14.3481   22.4000 N   0  0  0  0  0  0  0  0  0  0  0  0
    7.8390   13.3635   24.6100 C   0  0  0  0  0  0  0  0  0  0  0  0
    7.2623   12.5310   25.7594 C   0  0  0  0  0  0  0  0  0  0  0  0
  1  2  2  0
  2  3  1  0
  3  4  1  0
  4  5  1  0
  5  6  2  0
  6  7  1  0
  7  8  2  0
  8  9  1  0
  9 10  2  0
  4 11  1  0
 11 12  1  0
 12  1  1  0
 10  5  1  0
M  END
>  <ref_pdb>  (715) 
A3564a

>  <subsites>  (715) 
1 - Active Site

>  <HIPPO Compound ID>  (715) 
9822

>  <energy_score>  (715) 
-12.968536

>  <fragmenstein_mode>  (715) 
expansion

>  <scratch_subdir>  (715) 
/opt/xchem-fragalysis-2/maxwin/BulkDock/SCRATCH/512203/C744-P219

>  <smiles>  (715) 
C1=CCN(c2ccccn2)CC1

>  <alias>  (715) 
C744-P219

>  <ref_mols>  (715) 
A3986b,A3564a,A4650a,A4846a

>  <inspiration_score>  (715) 
None

>  <tags>  (715) 
BulkDock Fragalysis export,fragmenstein_placed,openbind_a71ev2a_c1_knitwork_impure,openbind_a71ev2a_c1_scaffolds

>  <fragmenstein_outcome>  (715) 
acceptable

>  <fragmenstein_error>  (715) 


>  <distance_score>  (715) 
0.786828

>  <inchikey>  (715) 
OTKRQPFMRSSARE-UHFFFAOYSA-N

>  <name>  (715) 
C744-P219

>  <HIPPO Pose ID>  (715) 
391547

>  <Energy>  (715) 
-2.288361

>  <exports>  (715) 
['/opt/xchem-fragalysis-2/maxwin/BulkDock/OUTPUTS/openbind_a71ev2a_c1_knitwork_impure_165VXJF.sdf', '/opt/xchem-fragalysis-2/maxwin/BulkDock/OUTPUTS/openbind_a71ev2a_c1_knitwork_impure_1B07QS4.sdf', '/opt/xchem-fragalysis-2/maxwin/BulkDock/OUTPUTS/openbind_a71ev2a_c1_knitwork_impure_1B07X5R.sdf', '/opt/xchem-fragalysis-2/maxwin/openbind-hippo/a71ev2a/openbind_a71ev2a_c1_scaffold_products.sdf', '/opt/xchem-fragalysis-2/maxwin/openbind-hippo/a71ev2a/cycle_01/bulkdock/openbind_a71ev2a_c1_scaffold_products.sdf', '/opt/xchem-fragalysis-2/maxwin/openbind-hippo/a71ev2a/cycle_01/bulkdock/openbind_a71ev2a_c1_scaffolds.sdf']

>  <fragmenstein_runtime>  (715) 
5.716428

$$$$
C7137-P423
     RDKit          3D

 19 20  0  0  0  0  0  0  0  0999 V2000
    3.4827   12.2825   30.4812 C   0  0  0  0  0  0  0  0  0  0  0  0
    3.0488   11.1911   29.5051 C   0  0  2  0  0  0  0  0  0  0  0  0
    3.2130   11.7062   28.0611 C   0  0  0  0  0  0  0  0  0  0  0  0
    4.4819   11.1552   27.4300 C   0  0  0  0  0  0  0  0  0  0  0  0
    4.9385   10.1322   27.7537 O   0  0  0  0  0  0  0  0  0  0  0  0
    4.9107   12.1368   26.3111 N   0  0  0  0  0  0  0  0  0  0  0  0
    5.9760   12.1077   25.4785 C   0  0  0  0  0  0  0  0  0  0  0  0
    6.4009   13.1340   24.7871 N   0  0  0  0  0  0  0  0  0  0  0  0
    7.5104   12.7556   24.0529 C   0  0  0  0  0  0  0  0  0  0  0  0
    7.8845   11.4408   24.2024 C   0  0  0  0  0  0  0  0  0  0  0  0
    9.1526   10.8240   23.5568 C   0  0  0  0  0  0  0  0  0  0  0  0
    9.2109    9.3003   23.3353 C   0  0  0  0  0  0  0  0  0  0  0  0
   10.5984    9.3152   23.8718 N   0  0  0  0  0  0  0  0  0  0  0  0
   10.2390   10.5441   24.6029 C   0  0  0  0  0  0  0  0  0  0  0  0
    6.8331   10.6562   25.2808 S   0  0  0  0  0  0  0  0  0  0  0  0
    1.6131   10.7680   29.7478 C   0  0  0  0  0  0  0  0  0  0  0  0
    1.4128   10.4099   31.0316 F   0  0  0  0  0  0  0  0  0  0  0  0
    1.2860    9.7142   28.9669 F   0  0  0  0  0  0  0  0  0  0  0  0
    0.7649   11.7747   29.4516 F   0  0  0  0  0  0  0  0  0  0  0  0
  2  1  1  1
  2  3  1  0
  3  4  1  0
  4  5  2  0
  4  6  1  0
  6  7  1  0
  7  8  2  0
  8  9  1  0
  9 10  2  0
 10 11  1  0
 11 12  1  0
 12 13  1  0
 13 14  1  0
 10 15  1  0
  2 16  1  0
 16 17  1  0
 16 18  1  0
 16 19  1  0
 15  7  1  0
 14 11  1  0
M  END
>  <ref_pdb>  (716) 
A4650a

>  <subsites>  (716) 
1 - Active Site

>  <HIPPO Compound ID>  (716) 
1685

>  <energy_score>  (716) 
-63.826018

>  <fragmenstein_mode>  (716) 
expansion

>  <scratch_subdir>  (716) 
/opt/xchem-fragalysis-2/maxwin/BulkDock/SCRATCH/512203/C7137-P423

>  <smiles>  (716) 
C[C@H](CC(=O)Nc1ncc(C2CNC2)s1)C(F)(F)F

>  <alias>  (716) 
C7137-P423

>  <ref_mols>  (716) 
A1445a,A4650a

>  <inspiration_score>  (716) 
None

>  <tags>  (716) 
BulkDock Fragalysis export,fragmenstein_placed,openbind_a71ev2a_c1_knitwork_impure,openbind_a71ev2a_c1_scaffolds

>  <fragmenstein_outcome>  (716) 
acceptable

>  <fragmenstein_error>  (716) 


>  <distance_score>  (716) 
0.857745

>  <inchikey>  (716) 
DWCBDTDREZNSGU-UHFFFAOYSA-N

>  <name>  (716) 
C7137-P423

>  <HIPPO Pose ID>  (716) 
391680

>  <Energy>  (716) 
0.502497

>  <exports>  (716) 
['/opt/xchem-fragalysis-2/maxwin/BulkDock/OUTPUTS/openbind_a71ev2a_c1_knitwork_impure_165VXJF.sdf', '/opt/xchem-fragalysis-2/maxwin/BulkDock/OUTPUTS/openbind_a71ev2a_c1_knitwork_impure_1B07QS4.sdf', '/opt/xchem-fragalysis-2/maxwin/BulkDock/OUTPUTS/openbind_a71ev2a_c1_knitwork_impure_1B07X5R.sdf', '/opt/xchem-fragalysis-2/maxwin/openbind-hippo/a71ev2a/openbind_a71ev2a_c1_scaffold_products.sdf', '/opt/xchem-fragalysis-2/maxwin/openbind-hippo/a71ev2a/cycle_01/bulkdock/openbind_a71ev2a_c1_scaffold_products.sdf', '/opt/xchem-fragalysis-2/maxwin/openbind-hippo/a71ev2a/cycle_01/bulkdock/openbind_a71ev2a_c1_scaffolds.sdf']

>  <fragmenstein_runtime>  (716) 
8.924399

$$$$
C38801-P76
     RDKit          3D

 12 13  0  0  0  0  0  0  0  0999 V2000
    5.0362   13.4834    1.6464 O   0  0  0  0  0  0  0  0  0  0  0  0
    5.3224   12.8749    2.6735 C   0  0  0  0  0  0  0  0  0  0  0  0
    5.1615   11.3947    2.8182 C   0  0  0  0  0  0  0  0  0  0  0  0
    6.5395   10.8476    3.1363 C   0  0  0  0  0  0  0  0  0  0  0  0
    7.2078   11.5532    4.1980 O   0  0  0  0  0  0  0  0  0  0  0  0
    7.3045   12.9789    4.0247 C   0  0  1  0  0  0  0  0  0  0  0  0
    8.2495   13.4232    2.9433 C   0  0  0  0  0  0  0  0  0  0  0  0
    9.1067   12.6406    2.1357 C   0  0  0  0  0  0  0  0  0  0  0  0
    9.8080   13.3668    1.2626 N   0  0  0  0  0  0  0  0  0  0  0  0
    9.3663   14.6144    1.4624 N   0  0  0  0  0  0  0  0  0  0  0  0
    8.4806   14.7115    2.4949 C   0  0  0  0  0  0  0  0  0  0  0  0
    5.9082   13.5653    3.8688 C   0  0  0  0  0  0  0  0  0  0  0  0
  1  2  2  0
  2  3  1  0
  3  4  1  0
  4  5  1  0
  5  6  1  0
  6  7  1  6
  7  8  1  0
  8  9  2  0
  9 10  1  0
 10 11  1  0
  6 12  1  0
 12  2  1  0
 11  7  2  0
M  END
>  <ref_pdb>  (717) 
A0717a

>  <subsites>  (717) 
3 - A0541/A/147/1

>  <HIPPO Compound ID>  (717) 
10527

>  <energy_score>  (717) 
-12.003729

>  <fragmenstein_mode>  (717) 
expansion

>  <scratch_subdir>  (717) 
/opt/xchem-fragalysis-2/maxwin/BulkDock/SCRATCH/512203/C38801-P76

>  <smiles>  (717) 
O=C1CCO[C@@H](c2cn[nH]c2)C1

>  <alias>  (717) 
C38801-P76

>  <ref_mols>  (717) 
A0354a,A0717a

>  <inspiration_score>  (717) 
None

>  <tags>  (717) 
BulkDock Fragalysis export,fragmenstein_placed,openbind_a71ev2a_c1_knitwork_impure,openbind_a71ev2a_c1_scaffolds

>  <fragmenstein_outcome>  (717) 
acceptable

>  <fragmenstein_error>  (717) 


>  <distance_score>  (717) 
0.893763

>  <inchikey>  (717) 
REXDXSHVJSWRIX-UHFFFAOYSA-N

>  <name>  (717) 
C38801-P76

>  <HIPPO Pose ID>  (717) 
391758

>  <Energy>  (717) 
1.590162

>  <exports>  (717) 
['/opt/xchem-fragalysis-2/maxwin/BulkDock/OUTPUTS/openbind_a71ev2a_c1_knitwork_impure_165VXJF.sdf', '/opt/xchem-fragalysis-2/maxwin/BulkDock/OUTPUTS/openbind_a71ev2a_c1_knitwork_impure_1B07QS4.sdf', '/opt/xchem-fragalysis-2/maxwin/BulkDock/OUTPUTS/openbind_a71ev2a_c1_knitwork_impure_1B07X5R.sdf', '/opt/xchem-fragalysis-2/maxwin/openbind-hippo/a71ev2a/openbind_a71ev2a_c1_scaffold_products.sdf', '/opt/xchem-fragalysis-2/maxwin/openbind-hippo/a71ev2a/cycle_01/bulkdock/openbind_a71ev2a_c1_scaffold_products.sdf', '/opt/xchem-fragalysis-2/maxwin/openbind-hippo/a71ev2a/cycle_01/bulkdock/openbind_a71ev2a_c1_scaffolds.sdf']

>  <fragmenstein_runtime>  (717) 
4.861687

$$$$
C3256-P185
     RDKit          3D

 16 18  0  0  0  0  0  0  0  0999 V2000
    8.1955   11.5435   24.3076 C   0  0  0  0  0  0  0  0  0  0  0  0
    8.8209   12.4936   23.5738 N   0  0  0  0  0  0  0  0  0  0  0  0
    8.4552   13.7673   23.8147 C   0  0  0  0  0  0  0  0  0  0  0  0
    9.2457   14.9568   23.2723 C   0  0  1  0  0  0  0  0  0  0  0  0
   10.6957   14.9488   23.7691 C   0  0  0  0  0  0  0  0  0  0  0  0
   11.6496   14.2728   22.8046 C   0  0  0  0  0  0  0  0  0  0  0  0
   11.4626   14.8360   21.4038 C   0  0  0  0  0  0  0  0  0  0  0  0
   10.0158   14.6699   20.9602 C   0  0  0  0  0  0  0  0  0  0  0  0
    9.0838   15.3225   21.8608 N   0  0  0  0  0  0  0  0  0  0  0  0
    7.5022   14.1133   24.7001 N   0  0  0  0  0  0  0  0  0  0  0  0
    6.8825   13.1472   25.3872 C   0  0  0  0  0  0  0  0  0  0  0  0
    7.2207   11.8171   25.2543 C   0  0  0  0  0  0  0  0  0  0  0  0
    6.5542   10.7566   26.0654 C   0  0  0  0  0  0  0  0  0  0  0  0
    5.6786   11.2762   27.2101 C   0  0  0  0  0  0  0  0  0  0  0  0
    4.9138   12.5312   26.8202 C   0  0  0  0  0  0  0  0  0  0  0  0
    5.8777   13.6251   26.3943 C   0  0  0  0  0  0  0  0  0  0  0  0
  1  2  2  0
  2  3  1  0
  4  3  1  6
  4  5  1  0
  5  6  1  0
  6  7  1  0
  7  8  1  0
  8  9  1  0
  3 10  2  0
 10 11  1  0
 11 12  2  0
 12 13  1  0
 13 14  1  0
 14 15  1  0
 15 16  1  0
 12  1  1  0
  9  4  1  0
 16 11  1  0
M  END
>  <ref_pdb>  (718) 
A3480a

>  <subsites>  (718) 
1 - Active Site

>  <HIPPO Compound ID>  (718) 
10854

>  <energy_score>  (718) 
-28.844684

>  <fragmenstein_mode>  (718) 
expansion

>  <scratch_subdir>  (718) 
/opt/xchem-fragalysis-2/maxwin/BulkDock/SCRATCH/512203/C3256-P185

>  <smiles>  (718) 
c1nc([C@H]2CCCCN2)nc2c1CCCC2

>  <alias>  (718) 
C3256-P185

>  <ref_mols>  (718) 
A3480a,A1068a

>  <inspiration_score>  (718) 
None

>  <tags>  (718) 
BulkDock Fragalysis export,fragmenstein_placed,openbind_a71ev2a_c1_knitwork_impure,openbind_a71ev2a_c1_scaffolds

>  <fragmenstein_outcome>  (718) 
acceptable

>  <fragmenstein_error>  (718) 


>  <distance_score>  (718) 
0.945354

>  <inchikey>  (718) 
GTOHXODIXBECHG-UHFFFAOYSA-N

>  <name>  (718) 
C3256-P185

>  <HIPPO Pose ID>  (718) 
391797

>  <Energy>  (718) 
38.691778

>  <exports>  (718) 
['/opt/xchem-fragalysis-2/maxwin/BulkDock/OUTPUTS/openbind_a71ev2a_c1_knitwork_impure_165VXJF.sdf', '/opt/xchem-fragalysis-2/maxwin/BulkDock/OUTPUTS/openbind_a71ev2a_c1_knitwork_impure_1B07QS4.sdf', '/opt/xchem-fragalysis-2/maxwin/BulkDock/OUTPUTS/openbind_a71ev2a_c1_knitwork_impure_1B07X5R.sdf', '/opt/xchem-fragalysis-2/maxwin/openbind-hippo/a71ev2a/openbind_a71ev2a_c1_scaffold_products.sdf', '/opt/xchem-fragalysis-2/maxwin/openbind-hippo/a71ev2a/cycle_01/bulkdock/openbind_a71ev2a_c1_scaffold_products.sdf', '/opt/xchem-fragalysis-2/maxwin/openbind-hippo/a71ev2a/cycle_01/bulkdock/openbind_a71ev2a_c1_scaffolds.sdf']

>  <fragmenstein_runtime>  (718) 
2.703827

$$$$
C3266-P185
     RDKit          3D

 16 18  0  0  0  0  0  0  0  0999 V2000
    8.7792   11.6872   23.8265 C   0  0  0  0  0  0  0  0  0  0  0  0
    8.0350   10.9860   24.7187 N   0  0  0  0  0  0  0  0  0  0  0  0
    7.1116   11.7146   25.3859 C   0  0  0  0  0  0  0  0  0  0  0  0
    6.9450   13.0825   25.1579 C   0  0  0  0  0  0  0  0  0  0  0  0
    7.7212   13.7671   24.2794 N   0  0  0  0  0  0  0  0  0  0  0  0
    8.6405   13.0613   23.5967 C   0  0  0  0  0  0  0  0  0  0  0  0
    9.5258   13.7020   22.7213 N   0  0  0  0  0  0  0  0  0  0  0  0
   10.7166   14.1328   23.4571 C   0  0  0  0  0  0  0  0  0  0  0  0
   11.7855   14.5238   22.4507 C   0  0  0  0  0  0  0  0  0  0  0  0
   11.2978   15.5961   21.4888 C   0  0  0  0  0  0  0  0  0  0  0  0
    9.9498   15.2309   20.8727 C   0  0  0  0  0  0  0  0  0  0  0  0
    8.9328   14.7934   21.9331 C   0  0  0  0  0  0  0  0  0  0  0  0
    5.9659   13.8987   25.9531 C   0  0  0  0  0  0  0  0  0  0  0  0
    4.9205   13.0648   26.6885 C   0  0  0  0  0  0  0  0  0  0  0  0
    5.5651   11.8732   27.3814 C   0  0  0  0  0  0  0  0  0  0  0  0
    6.2478   10.9752   26.3602 C   0  0  0  0  0  0  0  0  0  0  0  0
  1  2  2  0
  2  3  1  0
  3  4  2  0
  4  5  1  0
  5  6  2  0
  6  7  1  0
  7  8  1  0
  8  9  1  0
  9 10  1  0
 10 11  1  0
 11 12  1  0
  4 13  1  0
 13 14  1  0
 14 15  1  0
 15 16  1  0
  6  1  1  0
 12  7  1  0
 16  3  1  0
M  END
>  <ref_pdb>  (719) 
A3480a

>  <subsites>  (719) 
1 - Active Site

>  <HIPPO Compound ID>  (719) 
4781

>  <energy_score>  (719) 
-23.655677

>  <fragmenstein_mode>  (719) 
expansion

>  <scratch_subdir>  (719) 
/opt/xchem-fragalysis-2/maxwin/BulkDock/SCRATCH/512203/C3266-P185

>  <smiles>  (719) 
c1nc2c(nc1N1CCCCC1)CCCC2

>  <alias>  (719) 
C3266-P185

>  <ref_mols>  (719) 
A3480a,A1068a

>  <inspiration_score>  (719) 
None

>  <tags>  (719) 
BulkDock Fragalysis export,fragmenstein_placed,openbind_a71ev2a_c1_knitwork_impure,openbind_a71ev2a_c1_scaffolds

>  <fragmenstein_outcome>  (719) 
acceptable

>  <fragmenstein_error>  (719) 


>  <distance_score>  (719) 
0.949997

>  <inchikey>  (719) 
JGHMMIULJFZDBA-UHFFFAOYSA-N

>  <name>  (719) 
C3266-P185

>  <HIPPO Pose ID>  (719) 
391807

>  <Energy>  (719) 
47.206404

>  <exports>  (719) 
['/opt/xchem-fragalysis-2/maxwin/BulkDock/OUTPUTS/openbind_a71ev2a_c1_knitwork_impure_165VXJF.sdf', '/opt/xchem-fragalysis-2/maxwin/BulkDock/OUTPUTS/openbind_a71ev2a_c1_knitwork_impure_1B07QS4.sdf', '/opt/xchem-fragalysis-2/maxwin/BulkDock/OUTPUTS/openbind_a71ev2a_c1_knitwork_impure_1B07X5R.sdf', '/opt/xchem-fragalysis-2/maxwin/openbind-hippo/a71ev2a/openbind_a71ev2a_c1_scaffold_products.sdf', '/opt/xchem-fragalysis-2/maxwin/openbind-hippo/a71ev2a/cycle_01/bulkdock/openbind_a71ev2a_c1_scaffold_products.sdf', '/opt/xchem-fragalysis-2/maxwin/openbind-hippo/a71ev2a/cycle_01/bulkdock/openbind_a71ev2a_c1_scaffolds.sdf']

>  <fragmenstein_runtime>  (719) 
5.274215

$$$$
C3292-P185
     RDKit          3D

 16 18  0  0  0  0  0  0  0  0999 V2000
    8.0381   11.0252   24.5822 C   0  0  0  0  0  0  0  0  0  0  0  0
    8.8581   11.6352   23.7183 N   0  0  0  0  0  0  0  0  0  0  0  0
    8.7741   12.9735   23.6326 C   0  0  0  0  0  0  0  0  0  0  0  0
    9.7315   13.6274   22.6863 C   0  0  2  0  0  0  0  0  0  0  0  0
   10.8459   14.3756   23.4146 C   0  0  0  0  0  0  0  0  0  0  0  0
   11.8545   14.8137   22.3641 C   0  0  0  0  0  0  0  0  0  0  0  0
   11.2114   15.6156   21.2388 C   0  0  0  0  0  0  0  0  0  0  0  0
   10.0679   14.9342   20.6280 N   0  0  0  0  0  0  0  0  0  0  0  0
    9.0798   14.5535   21.6542 C   0  0  0  0  0  0  0  0  0  0  0  0
    7.9558   13.7250   24.3789 N   0  0  0  0  0  0  0  0  0  0  0  0
    7.1283   13.0806   25.2353 C   0  0  0  0  0  0  0  0  0  0  0  0
    7.1133   11.6951   25.3553 C   0  0  0  0  0  0  0  0  0  0  0  0
    6.2294   10.9315   26.2930 C   0  0  0  0  0  0  0  0  0  0  0  0
    5.1407   11.7184   27.0087 C   0  0  0  0  0  0  0  0  0  0  0  0
    5.7740   13.2747   27.6587 S   0  0  0  0  0  0  0  0  0  0  0  0
    6.2149   13.9727   26.0377 C   0  0  0  0  0  0  0  0  0  0  0  0
  1  2  2  0
  2  3  1  0
  4  3  1  1
  4  5  1  0
  5  6  1  0
  6  7  1  0
  7  8  1  0
  8  9  1  0
  3 10  2  0
 10 11  1  0
 11 12  2  0
 12 13  1  0
 13 14  1  0
 14 15  1  0
 15 16  1  0
 12  1  1  0
  9  4  1  0
 16 11  1  0
M  END
>  <ref_pdb>  (720) 
A3480a

>  <subsites>  (720) 
1 - Active Site

>  <HIPPO Compound ID>  (720) 
7499

>  <energy_score>  (720) 
-29.262394

>  <fragmenstein_mode>  (720) 
expansion

>  <scratch_subdir>  (720) 
/opt/xchem-fragalysis-2/maxwin/BulkDock/SCRATCH/512203/C3292-P185

>  <smiles>  (720) 
c1nc([C@@H]2CCCNC2)nc2c1CCSC2

>  <alias>  (720) 
C3292-P185

>  <ref_mols>  (720) 
A3480a,A1068a

>  <inspiration_score>  (720) 
None

>  <tags>  (720) 
BulkDock Fragalysis export,fragmenstein_placed,openbind_a71ev2a_c1_knitwork_impure,openbind_a71ev2a_c1_scaffolds

>  <fragmenstein_outcome>  (720) 
acceptable

>  <fragmenstein_error>  (720) 


>  <distance_score>  (720) 
0.936388

>  <inchikey>  (720) 
PUIPAYFHRQTOOJ-UHFFFAOYSA-N

>  <name>  (720) 
C3292-P185

>  <HIPPO Pose ID>  (720) 
391823

>  <Energy>  (720) 
30.774933

>  <exports>  (720) 
['/opt/xchem-fragalysis-2/maxwin/BulkDock/OUTPUTS/openbind_a71ev2a_c1_knitwork_impure_165VXJF.sdf', '/opt/xchem-fragalysis-2/maxwin/BulkDock/OUTPUTS/openbind_a71ev2a_c1_knitwork_impure_1B07QS4.sdf', '/opt/xchem-fragalysis-2/maxwin/BulkDock/OUTPUTS/openbind_a71ev2a_c1_knitwork_impure_1B07X5R.sdf', '/opt/xchem-fragalysis-2/maxwin/openbind-hippo/a71ev2a/openbind_a71ev2a_c1_scaffold_products.sdf', '/opt/xchem-fragalysis-2/maxwin/openbind-hippo/a71ev2a/cycle_01/bulkdock/openbind_a71ev2a_c1_scaffold_products.sdf', '/opt/xchem-fragalysis-2/maxwin/openbind-hippo/a71ev2a/cycle_01/bulkdock/openbind_a71ev2a_c1_scaffolds.sdf']

>  <fragmenstein_runtime>  (720) 
8.633978

$$$$
C727-P384
     RDKit          3D

 12 13  0  0  0  0  0  0  0  0999 V2000
    5.8009   14.2683   23.5627 C   0  0  0  0  0  0  0  0  0  0  0  0
    6.9941   14.4044   22.8619 C   0  0  0  0  0  0  0  0  0  0  0  0
    8.1286   14.9266   23.4986 C   0  0  0  0  0  0  0  0  0  0  0  0
    9.3542   15.0351   22.8067 N   0  0  0  0  0  0  0  0  0  0  0  0
   10.5464   15.3879   23.5956 C   0  0  0  0  0  0  0  0  0  0  0  0
   11.8173   15.1846   22.7759 C   0  0  0  0  0  0  0  0  0  0  0  0
   11.7695   15.9844   21.4819 C   0  0  0  0  0  0  0  0  0  0  0  0
   10.5252   15.6091   20.6914 C   0  0  0  0  0  0  0  0  0  0  0  0
    9.2565   15.7788   21.5262 C   0  0  0  0  0  0  0  0  0  0  0  0
    7.9702   15.2791   24.8431 C   0  0  0  0  0  0  0  0  0  0  0  0
    6.7392   15.1076   25.4654 C   0  0  0  0  0  0  0  0  0  0  0  0
    5.6500   14.6003   24.8595 N   0  0  0  0  0  0  0  0  0  0  0  0
  1  2  2  0
  2  3  1  0
  3  4  1  0
  4  5  1  0
  5  6  1  0
  6  7  1  0
  7  8  1  0
  8  9  1  0
  3 10  2  0
 10 11  1  0
 11 12  2  0
 12  1  1  0
  9  4  1  0
M  END
>  <ref_pdb>  (721) 
A4509a

>  <subsites>  (721) 
1 - Active Site

>  <HIPPO Compound ID>  (721) 
795

>  <energy_score>  (721) 
-22.098114

>  <fragmenstein_mode>  (721) 
expansion

>  <scratch_subdir>  (721) 
/opt/xchem-fragalysis-2/maxwin/BulkDock/SCRATCH/512203/C727-P384

>  <smiles>  (721) 
c1cc(N2CCCCC2)ccn1

>  <alias>  (721) 
C727-P384

>  <ref_mols>  (721) 
A4509a,A3564a

>  <inspiration_score>  (721) 
None

>  <tags>  (721) 
BulkDock Fragalysis export,fragmenstein_placed,openbind_a71ev2a_c1_knitwork_impure,openbind_a71ev2a_c1_scaffolds

>  <fragmenstein_outcome>  (721) 
acceptable

>  <fragmenstein_error>  (721) 


>  <distance_score>  (721) 
0.931619

>  <inchikey>  (721) 
JVDTWAMFTGWSKS-UHFFFAOYSA-N

>  <name>  (721) 
C727-P384

>  <HIPPO Pose ID>  (721) 
391922

>  <Energy>  (721) 
12.827988

>  <exports>  (721) 
['/opt/xchem-fragalysis-2/maxwin/BulkDock/OUTPUTS/openbind_a71ev2a_c1_knitwork_impure_165VXJF.sdf', '/opt/xchem-fragalysis-2/maxwin/BulkDock/OUTPUTS/openbind_a71ev2a_c1_knitwork_impure_1B07QS4.sdf', '/opt/xchem-fragalysis-2/maxwin/BulkDock/OUTPUTS/openbind_a71ev2a_c1_knitwork_impure_1B07X5R.sdf', '/opt/xchem-fragalysis-2/maxwin/openbind-hippo/a71ev2a/openbind_a71ev2a_c1_scaffold_products.sdf', '/opt/xchem-fragalysis-2/maxwin/openbind-hippo/a71ev2a/cycle_01/bulkdock/openbind_a71ev2a_c1_scaffold_products.sdf', '/opt/xchem-fragalysis-2/maxwin/openbind-hippo/a71ev2a/cycle_01/bulkdock/openbind_a71ev2a_c1_scaffolds.sdf']

>  <fragmenstein_runtime>  (721) 
5.832061

$$$$
C11373-P23
     RDKit          3D

 19 21  0  0  0  0  0  0  0  0999 V2000
   22.7018   14.0070    1.5447 C   0  0  0  0  0  0  0  0  0  0  0  0
   22.0095   14.4318    2.8248 C   0  0  0  0  0  0  0  0  0  0  0  0
   20.5783   14.6144    2.6566 N   0  0  0  0  0  0  0  0  0  0  0  0
   19.7246   13.5831    2.8750 N   0  0  0  0  0  0  0  0  0  0  0  0
   18.5198   14.1333    2.7141 C   0  0  0  0  0  0  0  0  0  0  0  0
   18.5852   15.4977    2.3636 C   0  0  0  0  0  0  0  0  0  0  0  0
   17.6571   16.5122    2.0807 C   0  0  0  0  0  0  0  0  0  0  0  0
   18.1315   17.7899    1.7517 C   0  0  0  0  0  0  0  0  0  0  0  0
   19.5006   18.0618    1.7096 C   0  0  0  0  0  0  0  0  0  0  0  0
   19.9082   19.3502    1.3732 N   0  0  0  0  0  0  0  0  0  0  0  0
   21.3331   19.9585    1.2509 C   0  0  0  0  0  0  0  0  0  0  0  0
   22.3857   19.4505    1.3388 O   0  0  0  0  0  0  0  0  0  0  0  0
   21.1959   21.4876    0.9353 C   0  0  0  0  0  0  0  0  0  0  0  0
   22.1638   22.4421    1.7054 C   0  0  0  0  0  0  0  0  0  0  0  0
   22.3979   23.1500    0.3592 C   0  0  0  0  0  0  0  0  0  0  0  0
   22.8354   24.2337    0.0401 O   0  0  0  0  0  0  0  0  0  0  0  0
   21.8058   21.9628   -0.4205 C   0  0  0  0  0  0  0  0  0  0  0  0
   20.4349   17.0628    1.9972 C   0  0  0  0  0  0  0  0  0  0  0  0
   19.9446   15.7881    2.3203 C   0  0  0  0  0  0  0  0  0  0  0  0
  1  2  1  0
  2  3  1  0
  3  4  1  0
  4  5  2  0
  5  6  1  0
  6  7  2  0
  7  8  1  0
  8  9  2  0
  9 10  1  0
 10 11  1  0
 11 12  2  0
 11 13  1  0
 13 14  1  0
 14 15  1  0
 15 16  2  0
 15 17  1  0
  9 18  1  0
 18 19  2  0
 19  3  1  0
 19  6  1  0
 17 13  1  0
M  END
>  <ref_pdb>  (722) 
A0528b

>  <subsites>  (722) 
5 - A3181/A/202/1,6 - A0486/A/147/1

>  <HIPPO Compound ID>  (722) 
1406

>  <energy_score>  (722) 
-38.617569

>  <fragmenstein_mode>  (722) 
expansion

>  <scratch_subdir>  (722) 
/opt/xchem-fragalysis-2/maxwin/BulkDock/SCRATCH/512203/C11373-P23

>  <smiles>  (722) 
CCn1ncc2ccc(NC(=O)C3CC(=O)C3)cc21

>  <alias>  (722) 
C11373-P23

>  <ref_mols>  (722) 
A0486a,A0528b

>  <inspiration_score>  (722) 
None

>  <tags>  (722) 
BulkDock Fragalysis export,fragmenstein_placed,openbind_a71ev2a_c1_knitwork_impure,openbind_a71ev2a_c1_scaffolds

>  <fragmenstein_outcome>  (722) 
acceptable

>  <fragmenstein_error>  (722) 


>  <distance_score>  (722) 
0.524078

>  <inchikey>  (722) 
ZHEXKJJYJURADK-UHFFFAOYSA-N

>  <name>  (722) 
C11373-P23

>  <HIPPO Pose ID>  (722) 
392080

>  <Energy>  (722) 
16.776896

>  <exports>  (722) 
['/opt/xchem-fragalysis-2/maxwin/BulkDock/OUTPUTS/openbind_a71ev2a_c1_knitwork_impure_165VXJF.sdf', '/opt/xchem-fragalysis-2/maxwin/BulkDock/OUTPUTS/openbind_a71ev2a_c1_knitwork_impure_1B07QS4.sdf', '/opt/xchem-fragalysis-2/maxwin/BulkDock/OUTPUTS/openbind_a71ev2a_c1_knitwork_impure_1B07X5R.sdf', '/opt/xchem-fragalysis-2/maxwin/openbind-hippo/a71ev2a/openbind_a71ev2a_c1_scaffold_products.sdf', '/opt/xchem-fragalysis-2/maxwin/openbind-hippo/a71ev2a/cycle_01/bulkdock/openbind_a71ev2a_c1_scaffold_products.sdf', '/opt/xchem-fragalysis-2/maxwin/openbind-hippo/a71ev2a/cycle_01/bulkdock/openbind_a71ev2a_c1_scaffolds.sdf']

>  <fragmenstein_runtime>  (722) 
5.039787

$$$$
C961-P617
     RDKit          3D

 18 20  0  0  0  0  0  0  0  0999 V2000
   26.3683   10.0130   -0.3195 O   0  0  0  0  0  0  0  0  0  0  0  0
   25.5834   10.7323   -0.8041 C   0  0  0  0  0  0  0  0  0  0  0  0
   24.4179   10.4345   -1.7925 N   0  0  0  0  0  0  0  0  0  0  0  0
   24.0609    9.2673   -2.4252 N   0  0  0  0  0  0  0  0  0  0  0  0
   23.5661    9.3292   -3.7004 C   0  0  0  0  0  0  0  0  0  0  0  0
   23.6094    8.3412   -4.5371 N   0  0  0  0  0  0  0  0  0  0  0  0
   23.0483    8.7578   -5.8362 C   0  0  0  0  0  0  0  0  0  0  0  0
   22.0445    9.8764   -5.6302 C   0  0  0  0  0  0  0  0  0  0  0  0
   22.7666   10.7922   -4.2624 S   0  0  0  0  0  0  0  0  0  0  0  0
   25.5868   12.2496   -0.5248 C   0  0  2  0  0  0  0  0  0  0  0  0
   26.7698   12.6409    0.3871 C   0  0  0  0  0  0  0  0  0  0  0  0
   26.4950   12.3108    1.8628 C   0  0  0  0  0  0  0  0  0  0  0  0
   25.2649   13.0589    2.3713 C   0  0  0  0  0  0  0  0  0  0  0  0
   24.1890   13.0493    1.4087 N   0  0  0  0  0  0  0  0  0  0  0  0
   22.9274   13.5183    1.5760 C   0  0  0  0  0  0  0  0  0  0  0  0
   22.2676   13.3940    0.4462 N   0  0  0  0  0  0  0  0  0  0  0  0
   23.1334   12.8707   -0.4930 N   0  0  0  0  0  0  0  0  0  0  0  0
   24.2990   12.6877    0.0932 C   0  0  0  0  0  0  0  0  0  0  0  0
  1  2  2  0
  2  3  1  0
  3  4  1  0
  4  5  1  0
  5  6  2  0
  6  7  1  0
  7  8  1  0
  8  9  1  0
 10  2  1  1
 10 11  1  0
 11 12  1  0
 12 13  1  0
 13 14  1  0
 14 15  1  0
 15 16  2  0
 16 17  1  0
 17 18  2  0
  9  5  1  0
 18 10  1  0
 18 14  1  0
M  END
>  <ref_pdb>  (723) 
A5425a

>  <subsites>  (723) 
1 - Active Site,6 - A0486/A/147/1

>  <HIPPO Compound ID>  (723) 
6064

>  <energy_score>  (723) 
-10.203913

>  <fragmenstein_mode>  (723) 
expansion

>  <scratch_subdir>  (723) 
/opt/xchem-fragalysis-2/maxwin/BulkDock/SCRATCH/512203/C961-P617

>  <smiles>  (723) 
O=C(NNC1=NCCS1)[C@@H]1CCCn2cnnc21

>  <alias>  (723) 
C961-P617

>  <ref_mols>  (723) 
A5425a,A0239a

>  <inspiration_score>  (723) 
None

>  <tags>  (723) 
BulkDock Fragalysis export,fragmenstein_placed,openbind_a71ev2a_c1_knitwork_impure,openbind_a71ev2a_c1_scaffolds

>  <fragmenstein_outcome>  (723) 
acceptable

>  <fragmenstein_error>  (723) 


>  <distance_score>  (723) 
0.643998

>  <inchikey>  (723) 
UEVNEQDSWATJMO-UHFFFAOYSA-N

>  <name>  (723) 
C961-P617

>  <HIPPO Pose ID>  (723) 
392503

>  <Energy>  (723) 
29.703027

>  <exports>  (723) 
['/opt/xchem-fragalysis-2/maxwin/BulkDock/OUTPUTS/openbind_a71ev2a_c1_knitwork_impure_165VXJF.sdf', '/opt/xchem-fragalysis-2/maxwin/BulkDock/OUTPUTS/openbind_a71ev2a_c1_knitwork_impure_1B07QS4.sdf', '/opt/xchem-fragalysis-2/maxwin/BulkDock/OUTPUTS/openbind_a71ev2a_c1_knitwork_impure_1B07X5R.sdf', '/opt/xchem-fragalysis-2/maxwin/openbind-hippo/a71ev2a/openbind_a71ev2a_c1_scaffold_products.sdf', '/opt/xchem-fragalysis-2/maxwin/openbind-hippo/a71ev2a/cycle_01/bulkdock/openbind_a71ev2a_c1_scaffold_products.sdf', '/opt/xchem-fragalysis-2/maxwin/openbind-hippo/a71ev2a/cycle_01/bulkdock/openbind_a71ev2a_c1_scaffolds.sdf']

>  <fragmenstein_runtime>  (723) 
2.576507

$$$$
C37900-P28
     RDKit          3D

 14 14  0  0  0  0  0  0  0  0999 V2000
    8.7618   16.9499   20.4649 C   0  0  0  0  0  0  0  0  0  0  0  0
    8.1546   15.8395   21.1932 C   0  0  0  0  0  0  0  0  0  0  0  0
    7.4242   15.0693   21.7598 C   0  0  0  0  0  0  0  0  0  0  0  0
    6.3320   14.3275   22.4083 C   0  0  0  0  0  0  0  0  0  0  0  0
    6.2225   14.4350   23.9254 C   0  0  0  0  0  0  0  0  0  0  0  0
    7.3343   13.9140   24.8226 C   0  0  0  0  0  0  0  0  0  0  0  0
    7.3952   14.2745   26.0120 O   0  0  0  0  0  0  0  0  0  0  0  0
    8.3521   12.8886   24.3270 C   0  0  2  0  0  0  0  0  0  0  0  0
    8.5736   12.7962   22.9478 O   0  0  0  0  0  0  0  0  0  0  0  0
    8.0429   11.5559   24.8497 C   0  0  0  0  0  0  0  0  0  0  0  0
    8.7108   10.3853   24.4605 C   0  0  0  0  0  0  0  0  0  0  0  0
    8.1918    9.3220   25.0559 N   0  0  0  0  0  0  0  0  0  0  0  0
    7.1705    9.8028   25.7843 N   0  0  0  0  0  0  0  0  0  0  0  0
    7.0857   11.1516   25.7547 C   0  0  0  0  0  0  0  0  0  0  0  0
  1  2  1  0
  2  3  3  0
  3  4  1  0
  4  5  1  0
  5  6  1  0
  6  7  2  0
  6  8  1  0
  8  9  1  6
  8 10  1  0
 10 11  1  0
 11 12  2  0
 12 13  1  0
 13 14  1  0
 14 10  2  0
M  END
>  <ref_pdb>  (724) 
A0556a

>  <subsites>  (724) 
1 - Active Site

>  <HIPPO Compound ID>  (724) 
3900

>  <energy_score>  (724) 
-2.396351

>  <fragmenstein_mode>  (724) 
expansion

>  <scratch_subdir>  (724) 
/opt/xchem-fragalysis-2/maxwin/BulkDock/SCRATCH/512203/C37900-P28

>  <smiles>  (724) 
CC#CCCC(=O)[C@H](O)c1cn[nH]c1

>  <alias>  (724) 
C37900-P28

>  <ref_mols>  (724) 
A0556a,A0719a

>  <inspiration_score>  (724) 
None

>  <tags>  (724) 
BulkDock Fragalysis export,fragmenstein_placed,openbind_a71ev2a_c1_knitwork_impure,openbind_a71ev2a_c1_scaffolds

>  <fragmenstein_outcome>  (724) 
acceptable

>  <fragmenstein_error>  (724) 


>  <distance_score>  (724) 
0.961602

>  <inchikey>  (724) 
CKUSNPGQZQJLGY-UHFFFAOYSA-N

>  <name>  (724) 
C37900-P28

>  <HIPPO Pose ID>  (724) 
392979

>  <Energy>  (724) 
50.662201

>  <exports>  (724) 
['/opt/xchem-fragalysis-2/maxwin/BulkDock/OUTPUTS/openbind_a71ev2a_c1_knitwork_impure_165VXJF.sdf', '/opt/xchem-fragalysis-2/maxwin/BulkDock/OUTPUTS/openbind_a71ev2a_c1_knitwork_impure_1B07QS4.sdf', '/opt/xchem-fragalysis-2/maxwin/BulkDock/OUTPUTS/openbind_a71ev2a_c1_knitwork_impure_1B07X5R.sdf', '/opt/xchem-fragalysis-2/maxwin/openbind-hippo/a71ev2a/openbind_a71ev2a_c1_scaffold_products.sdf', '/opt/xchem-fragalysis-2/maxwin/openbind-hippo/a71ev2a/cycle_01/bulkdock/openbind_a71ev2a_c1_scaffold_products.sdf', '/opt/xchem-fragalysis-2/maxwin/openbind-hippo/a71ev2a/cycle_01/bulkdock/openbind_a71ev2a_c1_scaffolds.sdf']

>  <fragmenstein_runtime>  (724) 
6.872473

$$$$
C2408-P196
     RDKit          3D

 15 15  0  0  0  0  0  0  0  0999 V2000
    9.2322   11.7758   23.8529 C   0  0  0  0  0  0  0  0  0  0  0  0
    7.9709   11.6346   24.6782 C   0  0  0  0  0  0  0  0  0  0  0  0
    7.1479   12.9216   24.7898 C   0  0  1  0  0  0  0  0  0  0  0  0
    6.1309   12.7896   25.9309 C   0  0  0  0  0  0  0  0  0  0  0  0
    7.9875   14.1922   24.9972 C   0  0  0  0  0  0  0  0  0  0  0  0
    8.6447   14.3147   26.0406 O   0  0  0  0  0  0  0  0  0  0  0  0
    8.0062   15.3100   23.8949 C   0  0  0  0  0  0  0  0  0  0  0  0
    6.6685   15.3157   23.1266 C   0  0  0  0  0  0  0  0  0  0  0  0
    8.0351   16.6536   24.6603 C   0  0  0  0  0  0  0  0  0  0  0  0
    9.1760   15.0793   22.9862 N   0  0  0  0  0  0  0  0  0  0  0  0
   10.4887   15.2687   23.6391 C   0  0  0  0  0  0  0  0  0  0  0  0
   11.6369   14.8155   22.7342 C   0  0  0  0  0  0  0  0  0  0  0  0
   11.6348   15.5834   21.4217 C   0  0  0  0  0  0  0  0  0  0  0  0
   10.2643   15.4920   20.7704 C   0  0  0  0  0  0  0  0  0  0  0  0
    9.1404   15.8771   21.7379 C   0  0  0  0  0  0  0  0  0  0  0  0
  1  2  1  0
  2  3  1  0
  3  4  1  1
  3  5  1  0
  5  6  2  0
  5  7  1  0
  7  8  1  0
  7  9  1  0
  7 10  1  0
 10 11  1  0
 11 12  1  0
 12 13  1  0
 13 14  1  0
 14 15  1  0
 15 10  1  0
M  END
>  <ref_pdb>  (725) 
A3616a

>  <subsites>  (725) 
1 - Active Site

>  <HIPPO Compound ID>  (725) 
15654

>  <energy_score>  (725) 
-54.29057

>  <fragmenstein_mode>  (725) 
expansion

>  <scratch_subdir>  (725) 
/opt/xchem-fragalysis-2/maxwin/BulkDock/SCRATCH/512203/C2408-P196

>  <smiles>  (725) 
CC[C@@H](C)C(=O)C(C)(C)N1CCCCC1

>  <alias>  (725) 
C2408-P196

>  <ref_mols>  (725) 
A1775a,A3616a

>  <inspiration_score>  (725) 
None

>  <tags>  (725) 
BulkDock Fragalysis export,fragmenstein_placed,openbind_a71ev2a_c1_knitwork_impure,openbind_a71ev2a_c1_scaffolds

>  <fragmenstein_outcome>  (725) 
acceptable

>  <fragmenstein_error>  (725) 


>  <distance_score>  (725) 
0.927544

>  <inchikey>  (725) 
AQXSEQFJAMXZOT-UHFFFAOYSA-N

>  <name>  (725) 
C2408-P196

>  <HIPPO Pose ID>  (725) 
393693

>  <Energy>  (725) 
52.040677

>  <exports>  (725) 
['/opt/xchem-fragalysis-2/maxwin/BulkDock/OUTPUTS/openbind_a71ev2a_c1_knitwork_impure_165VXJF.sdf', '/opt/xchem-fragalysis-2/maxwin/BulkDock/OUTPUTS/openbind_a71ev2a_c1_knitwork_impure_1B07QS4.sdf', '/opt/xchem-fragalysis-2/maxwin/BulkDock/OUTPUTS/openbind_a71ev2a_c1_knitwork_impure_1B07X5R.sdf', '/opt/xchem-fragalysis-2/maxwin/openbind-hippo/a71ev2a/openbind_a71ev2a_c1_scaffold_products.sdf', '/opt/xchem-fragalysis-2/maxwin/openbind-hippo/a71ev2a/cycle_01/bulkdock/openbind_a71ev2a_c1_scaffold_products.sdf', '/opt/xchem-fragalysis-2/maxwin/openbind-hippo/a71ev2a/cycle_01/bulkdock/openbind_a71ev2a_c1_scaffolds.sdf']

>  <fragmenstein_runtime>  (725) 
34.394087

$$$$
C3803-P358
     RDKit          3D

 11 12  0  0  0  0  0  0  0  0999 V2000
    7.1127   10.9448   25.2755 C   0  0  0  0  0  0  0  0  0  0  0  0
    7.4139    9.6580   25.0962 N   0  0  0  0  0  0  0  0  0  0  0  0
    8.4031    9.6918   24.1837 N   0  0  0  0  0  0  0  0  0  0  0  0
    8.7165   10.9595   23.7829 C   0  0  0  0  0  0  0  0  0  0  0  0
    7.8826   11.8195   24.4698 C   0  0  0  0  0  0  0  0  0  0  0  0
    7.7250   13.3089   24.3961 C   0  0  2  0  0  0  0  0  0  0  0  0
    7.9929   13.9386   23.0224 C   0  0  0  0  0  0  0  0  0  0  0  0
    9.4745   14.1056   22.6914 C   0  0  0  0  0  0  0  0  0  0  0  0
   10.2300   14.7332   23.8486 C   0  0  0  0  0  0  0  0  0  0  0  0
    9.9351   14.0231   25.1543 C   0  0  0  0  0  0  0  0  0  0  0  0
    8.5048   13.9626   25.4604 N   0  0  0  0  0  0  0  0  0  0  0  0
  1  2  2  0
  2  3  1  0
  3  4  1  0
  4  5  2  0
  6  5  1  6
  6  7  1  0
  7  8  1  0
  8  9  1  0
  9 10  1  0
 10 11  1  0
  5  1  1  0
 11  6  1  0
M  END
>  <ref_pdb>  (726) 
A4421a

>  <subsites>  (726) 
1 - Active Site

>  <HIPPO Compound ID>  (726) 
10683

>  <energy_score>  (726) 
-19.396031

>  <fragmenstein_mode>  (726) 
expansion

>  <scratch_subdir>  (726) 
/opt/xchem-fragalysis-2/maxwin/BulkDock/SCRATCH/512203/C3803-P358

>  <smiles>  (726) 
c1n[nH]cc1[C@@H]1CCCCN1

>  <alias>  (726) 
C3803-P358

>  <ref_mols>  (726) 
A0556a,A4421a

>  <inspiration_score>  (726) 
None

>  <tags>  (726) 
BulkDock Fragalysis export,fragmenstein_placed,openbind_a71ev2a_c1_knitwork_impure,openbind_a71ev2a_c1_scaffolds

>  <fragmenstein_outcome>  (726) 
acceptable

>  <fragmenstein_error>  (726) 


>  <distance_score>  (726) 
0.953601

>  <inchikey>  (726) 
FDTBFBNGCRTYIH-UHFFFAOYSA-N

>  <name>  (726) 
C3803-P358

>  <HIPPO Pose ID>  (726) 
393719

>  <Energy>  (726) 
2.178805

>  <exports>  (726) 
['/opt/xchem-fragalysis-2/maxwin/BulkDock/OUTPUTS/openbind_a71ev2a_c1_knitwork_impure_165VXJF.sdf', '/opt/xchem-fragalysis-2/maxwin/BulkDock/OUTPUTS/openbind_a71ev2a_c1_knitwork_impure_1B07QS4.sdf', '/opt/xchem-fragalysis-2/maxwin/BulkDock/OUTPUTS/openbind_a71ev2a_c1_knitwork_impure_1B07X5R.sdf', '/opt/xchem-fragalysis-2/maxwin/openbind-hippo/a71ev2a/openbind_a71ev2a_c1_scaffold_products.sdf', '/opt/xchem-fragalysis-2/maxwin/openbind-hippo/a71ev2a/cycle_01/bulkdock/openbind_a71ev2a_c1_scaffold_products.sdf', '/opt/xchem-fragalysis-2/maxwin/openbind-hippo/a71ev2a/cycle_01/bulkdock/openbind_a71ev2a_c1_scaffolds.sdf']

>  <fragmenstein_runtime>  (726) 
0.937251

$$$$
C3806-P358
     RDKit          3D

 11 12  0  0  0  0  0  0  0  0999 V2000
    7.0781   11.0427   25.2840 C   0  0  0  0  0  0  0  0  0  0  0  0
    7.3611    9.7414   25.2036 N   0  0  0  0  0  0  0  0  0  0  0  0
    8.3328    9.6879   24.2732 N   0  0  0  0  0  0  0  0  0  0  0  0
    8.6506   10.9131   23.7658 C   0  0  0  0  0  0  0  0  0  0  0  0
    7.8517   11.8397   24.4055 C   0  0  0  0  0  0  0  0  0  0  0  0
    7.7294   13.3288   24.1939 C   0  0  2  0  0  0  0  0  0  0  0  0
    8.5145   13.8578   22.9871 C   0  0  0  0  0  0  0  0  0  0  0  0
   10.0165   13.9252   23.2612 C   0  0  0  0  0  0  0  0  0  0  0  0
   10.3152   14.6928   24.5395 C   0  0  0  0  0  0  0  0  0  0  0  0
    9.5540   14.2194   25.6918 N   0  0  0  0  0  0  0  0  0  0  0  0
    8.1100   14.1744   25.4242 C   0  0  0  0  0  0  0  0  0  0  0  0
  1  2  2  0
  2  3  1  0
  3  4  1  0
  4  5  2  0
  6  5  1  1
  6  7  1  0
  7  8  1  0
  8  9  1  0
  9 10  1  0
 10 11  1  0
  5  1  1  0
 11  6  1  0
M  END
>  <ref_pdb>  (727) 
A4421a

>  <subsites>  (727) 
1 - Active Site

>  <HIPPO Compound ID>  (727) 
5363

>  <energy_score>  (727) 
-20.791108

>  <fragmenstein_mode>  (727) 
expansion

>  <scratch_subdir>  (727) 
/opt/xchem-fragalysis-2/maxwin/BulkDock/SCRATCH/512203/C3806-P358

>  <smiles>  (727) 
c1n[nH]cc1[C@@H]1CCCNC1

>  <alias>  (727) 
C3806-P358

>  <ref_mols>  (727) 
A0556a,A4421a

>  <inspiration_score>  (727) 
None

>  <tags>  (727) 
BulkDock Fragalysis export,fragmenstein_placed,openbind_a71ev2a_c1_knitwork_impure,openbind_a71ev2a_c1_scaffolds

>  <fragmenstein_outcome>  (727) 
acceptable

>  <fragmenstein_error>  (727) 


>  <distance_score>  (727) 
0.905348

>  <inchikey>  (727) 
NPDDPCJWLVZMCA-UHFFFAOYSA-N

>  <name>  (727) 
C3806-P358

>  <HIPPO Pose ID>  (727) 
393731

>  <Energy>  (727) 
23.935975

>  <exports>  (727) 
['/opt/xchem-fragalysis-2/maxwin/BulkDock/OUTPUTS/openbind_a71ev2a_c1_knitwork_impure_165VXJF.sdf', '/opt/xchem-fragalysis-2/maxwin/BulkDock/OUTPUTS/openbind_a71ev2a_c1_knitwork_impure_1B07QS4.sdf', '/opt/xchem-fragalysis-2/maxwin/BulkDock/OUTPUTS/openbind_a71ev2a_c1_knitwork_impure_1B07X5R.sdf', '/opt/xchem-fragalysis-2/maxwin/openbind-hippo/a71ev2a/openbind_a71ev2a_c1_scaffold_products.sdf', '/opt/xchem-fragalysis-2/maxwin/openbind-hippo/a71ev2a/cycle_01/bulkdock/openbind_a71ev2a_c1_scaffold_products.sdf', '/opt/xchem-fragalysis-2/maxwin/openbind-hippo/a71ev2a/cycle_01/bulkdock/openbind_a71ev2a_c1_scaffolds.sdf']

>  <fragmenstein_runtime>  (727) 
0.947062

$$$$
C4761-P358
     RDKit          3D

 11 12  0  0  0  0  0  0  0  0999 V2000
    7.1642   10.7643   25.0661 C   0  0  0  0  0  0  0  0  0  0  0  0
    7.5924    9.5098   24.9427 N   0  0  0  0  0  0  0  0  0  0  0  0
    8.5987    9.6024   24.0512 N   0  0  0  0  0  0  0  0  0  0  0  0
    8.8155   10.8795   23.6225 C   0  0  0  0  0  0  0  0  0  0  0  0
    7.8823   11.6758   24.2558 C   0  0  0  0  0  0  0  0  0  0  0  0
    7.6810   13.1570   24.1064 C   0  0  2  0  0  0  0  0  0  0  0  0
    7.3510   13.8537   25.4474 C   0  0  0  0  0  0  0  0  0  0  0  0
    5.5714   14.0049   25.8008 S   0  0  0  0  0  0  0  0  0  0  0  0
    5.0995   14.8719   24.2516 C   0  0  0  0  0  0  0  0  0  0  0  0
    6.1209   14.7245   23.1049 C   0  0  0  0  0  0  0  0  0  0  0  0
    6.6961   13.3697   23.0189 N   0  0  0  0  0  0  0  0  0  0  0  0
  1  2  2  0
  2  3  1  0
  3  4  1  0
  4  5  2  0
  6  5  1  1
  6  7  1  0
  7  8  1  0
  8  9  1  0
  9 10  1  0
 10 11  1  0
  5  1  1  0
 11  6  1  0
M  END
>  <ref_pdb>  (728) 
A4421a

>  <subsites>  (728) 
1 - Active Site

>  <HIPPO Compound ID>  (728) 
7819

>  <energy_score>  (728) 
-33.480294

>  <fragmenstein_mode>  (728) 
expansion

>  <scratch_subdir>  (728) 
/opt/xchem-fragalysis-2/maxwin/BulkDock/SCRATCH/512203/C4761-P358

>  <smiles>  (728) 
c1n[nH]cc1[C@@H]1CSCCN1

>  <alias>  (728) 
C4761-P358

>  <ref_mols>  (728) 
A0556a,A4421a

>  <inspiration_score>  (728) 
None

>  <tags>  (728) 
BulkDock Fragalysis export,fragmenstein_placed,openbind_a71ev2a_c1_knitwork_impure,openbind_a71ev2a_c1_scaffolds

>  <fragmenstein_outcome>  (728) 
acceptable

>  <fragmenstein_error>  (728) 


>  <distance_score>  (728) 
0.934753

>  <inchikey>  (728) 
TVNFUCRFFLGUGI-UHFFFAOYSA-N

>  <name>  (728) 
C4761-P358

>  <HIPPO Pose ID>  (728) 
393732

>  <Energy>  (728) 
57.782674

>  <exports>  (728) 
['/opt/xchem-fragalysis-2/maxwin/BulkDock/OUTPUTS/openbind_a71ev2a_c1_knitwork_impure_165VXJF.sdf', '/opt/xchem-fragalysis-2/maxwin/BulkDock/OUTPUTS/openbind_a71ev2a_c1_knitwork_impure_1B07QS4.sdf', '/opt/xchem-fragalysis-2/maxwin/BulkDock/OUTPUTS/openbind_a71ev2a_c1_knitwork_impure_1B07X5R.sdf', '/opt/xchem-fragalysis-2/maxwin/openbind-hippo/a71ev2a/openbind_a71ev2a_c1_scaffold_products.sdf', '/opt/xchem-fragalysis-2/maxwin/openbind-hippo/a71ev2a/cycle_01/bulkdock/openbind_a71ev2a_c1_scaffold_products.sdf', '/opt/xchem-fragalysis-2/maxwin/openbind-hippo/a71ev2a/cycle_01/bulkdock/openbind_a71ev2a_c1_scaffolds.sdf']

>  <fragmenstein_runtime>  (728) 
0.652145

$$$$
C715-P235
     RDKit          3D

 12 13  0  0  0  0  0  0  0  0999 V2000
    7.4354   12.1978   25.3743 C   0  0  0  0  0  0  0  0  0  0  0  0
    7.7809   10.9112   25.0051 C   0  0  0  0  0  0  0  0  0  0  0  0
    8.7611   10.6292   24.1255 N   0  0  0  0  0  0  0  0  0  0  0  0
    9.4250   11.6907   23.5977 C   0  0  0  0  0  0  0  0  0  0  0  0
    9.1810   13.0278   23.9120 C   0  0  0  0  0  0  0  0  0  0  0  0
    9.8845   14.1344   23.4008 N   0  0  0  0  0  0  0  0  0  0  0  0
    9.5785   14.4115   21.9818 C   0  0  0  0  0  0  0  0  0  0  0  0
   10.1977   15.7467   21.5617 C   0  0  0  0  0  0  0  0  0  0  0  0
   11.6964   15.7838   21.8544 C   0  0  0  0  0  0  0  0  0  0  0  0
   11.9629   15.4168   23.3119 C   0  0  0  0  0  0  0  0  0  0  0  0
   11.3312   14.0707   23.6624 C   0  0  0  0  0  0  0  0  0  0  0  0
    8.1468   13.2603   24.8188 C   0  0  0  0  0  0  0  0  0  0  0  0
  1  2  2  0
  2  3  1  0
  3  4  2  0
  4  5  1  0
  5  6  1  0
  6  7  1  0
  7  8  1  0
  8  9  1  0
  9 10  1  0
 10 11  1  0
  5 12  2  0
 12  1  1  0
 11  6  1  0
M  END
>  <ref_pdb>  (729) 
A3897a

>  <subsites>  (729) 
1 - Active Site

>  <HIPPO Compound ID>  (729) 
10847

>  <energy_score>  (729) 
-16.254267

>  <fragmenstein_mode>  (729) 
expansion

>  <scratch_subdir>  (729) 
/opt/xchem-fragalysis-2/maxwin/BulkDock/SCRATCH/512203/C715-P235

>  <smiles>  (729) 
c1cncc(N2CCCCC2)c1

>  <alias>  (729) 
C715-P235

>  <ref_mols>  (729) 
A3623a,A3897a

>  <inspiration_score>  (729) 
None

>  <tags>  (729) 
BulkDock Fragalysis export,fragmenstein_placed,openbind_a71ev2a_c1_knitwork_impure,openbind_a71ev2a_c1_scaffolds

>  <fragmenstein_outcome>  (729) 
acceptable

>  <fragmenstein_error>  (729) 


>  <distance_score>  (729) 
0.944794

>  <inchikey>  (729) 
IERXOVUPWKOWSK-UHFFFAOYSA-N

>  <name>  (729) 
C715-P235

>  <HIPPO Pose ID>  (729) 
393937

>  <Energy>  (729) 
38.995328

>  <exports>  (729) 
['/opt/xchem-fragalysis-2/maxwin/BulkDock/OUTPUTS/openbind_a71ev2a_c1_knitwork_impure_165VXJF.sdf', '/opt/xchem-fragalysis-2/maxwin/BulkDock/OUTPUTS/openbind_a71ev2a_c1_knitwork_impure_1B07QS4.sdf', '/opt/xchem-fragalysis-2/maxwin/BulkDock/OUTPUTS/openbind_a71ev2a_c1_knitwork_impure_1B07X5R.sdf', '/opt/xchem-fragalysis-2/maxwin/openbind-hippo/a71ev2a/openbind_a71ev2a_c1_scaffold_products.sdf', '/opt/xchem-fragalysis-2/maxwin/openbind-hippo/a71ev2a/cycle_01/bulkdock/openbind_a71ev2a_c1_scaffold_products.sdf', '/opt/xchem-fragalysis-2/maxwin/openbind-hippo/a71ev2a/cycle_01/bulkdock/openbind_a71ev2a_c1_scaffolds.sdf']

>  <fragmenstein_runtime>  (729) 
11.561597

$$$$
C688-P168
     RDKit          3D

 27 30  0  0  0  0  0  0  0  0999 V2000
   18.7759   19.0131   18.2842 O   0  0  0  0  0  0  0  0  0  0  0  0
   18.9133   19.4889   19.3982 C   0  0  0  0  0  0  0  0  0  0  0  0
   17.8992   20.3311   20.1264 C   0  0  0  0  0  0  0  0  0  0  0  0
   18.5268   20.5145   21.5092 C   0  0  0  0  0  0  0  0  0  0  0  0
   19.4734   19.3321   21.6000 C   0  0  2  0  0  0  0  0  0  0  0  0
   20.5087   19.2943   22.7252 C   0  0  0  0  0  0  0  0  0  0  0  0
   21.3194   20.4736   22.9771 N   0  0  0  0  0  0  0  0  0  0  0  0
   21.4725   20.9732   24.3311 C   0  0  0  0  0  0  0  0  0  0  0  0
   20.2318   21.6670   24.8163 C   0  0  0  0  0  0  0  0  0  0  0  0
   19.3370   21.0515   25.6964 C   0  0  0  0  0  0  0  0  0  0  0  0
   18.1756   21.7178   26.0727 C   0  0  0  0  0  0  0  0  0  0  0  0
   17.9526   22.9880   25.5678 C   0  0  0  0  0  0  0  0  0  0  0  0
   18.8023   23.6230   24.7349 N   0  0  0  0  0  0  0  0  0  0  0  0
   19.9080   22.9425   24.3598 C   0  0  0  0  0  0  0  0  0  0  0  0
   21.9607   21.1459   21.9468 C   0  0  0  0  0  0  0  0  0  0  0  0
   21.4116   22.0607   21.3465 O   0  0  0  0  0  0  0  0  0  0  0  0
   23.3126   20.5317   21.6419 C   0  0  0  0  0  0  0  0  0  0  0  0
   23.9664   21.0067   20.3994 C   0  0  0  0  0  0  0  0  0  0  0  0
   23.2769   21.2285   19.2743 N   0  0  0  0  0  0  0  0  0  0  0  0
   24.2117   21.6112   18.3896 N   0  0  0  0  0  0  0  0  0  0  0  0
   25.4885   21.5762   18.8803 C   0  0  0  0  0  0  0  0  0  0  0  0
   26.7208   21.8243   18.2725 C   0  0  0  0  0  0  0  0  0  0  0  0
   27.8648   21.6008   19.0449 C   0  0  0  0  0  0  0  0  0  0  0  0
   27.7726   21.1620   20.3658 C   0  0  0  0  0  0  0  0  0  0  0  0
   26.5260   20.9424   20.9612 C   0  0  0  0  0  0  0  0  0  0  0  0
   25.3645   21.1533   20.1962 C   0  0  0  0  0  0  0  0  0  0  0  0
   19.9631   19.2114   20.2574 N   0  0  0  0  0  0  0  0  0  0  0  0
  1  2  2  0
  2  3  1  0
  3  4  1  0
  4  5  1  0
  5  6  1  1
  6  7  1  0
  7  8  1  0
  8  9  1  0
  9 10  2  0
 10 11  1  0
 11 12  2  0
 12 13  1  0
 13 14  2  0
  7 15  1  0
 15 16  2  0
 15 17  1  0
 17 18  1  0
 18 19  2  0
 19 20  1  0
 20 21  1  0
 21 22  2  0
 22 23  1  0
 23 24  2  0
 24 25  1  0
 25 26  2  0
  5 27  1  0
 27  2  1  0
 14  9  1  0
 26 18  1  0
 26 21  1  0
M  END
>  <ref_pdb>  (730) 
A3306a

>  <subsites>  (730) 
1 - Active Site,5 - A3181/A/202/1

>  <HIPPO Compound ID>  (730) 
6286

>  <energy_score>  (730) 
-4.094908

>  <fragmenstein_mode>  (730) 
expansion

>  <scratch_subdir>  (730) 
/opt/xchem-fragalysis-2/maxwin/BulkDock/SCRATCH/512203/C688-P168

>  <smiles>  (730) 
O=C1CC[C@H](CN(Cc2cccnc2)C(=O)Cc2n[nH]c3ccccc23)N1

>  <alias>  (730) 
C688-P168

>  <ref_mols>  (730) 
A3306a,A3181b

>  <inspiration_score>  (730) 
None

>  <tags>  (730) 
BulkDock Fragalysis export,fragmenstein_placed,openbind_a71ev2a_c1_knitwork_impure,openbind_a71ev2a_c1_scaffolds

>  <fragmenstein_outcome>  (730) 
acceptable

>  <fragmenstein_error>  (730) 


>  <distance_score>  (730) 
0.643083

>  <inchikey>  (730) 
ANSXQAALPGNGJP-UHFFFAOYSA-N

>  <name>  (730) 
C688-P168

>  <HIPPO Pose ID>  (730) 
394403

>  <Energy>  (730) 
72.266659

>  <exports>  (730) 
['/opt/xchem-fragalysis-2/maxwin/BulkDock/OUTPUTS/openbind_a71ev2a_c1_knitwork_impure_165VXJF.sdf', '/opt/xchem-fragalysis-2/maxwin/BulkDock/OUTPUTS/openbind_a71ev2a_c1_knitwork_impure_1B07QS4.sdf', '/opt/xchem-fragalysis-2/maxwin/BulkDock/OUTPUTS/openbind_a71ev2a_c1_knitwork_impure_1B07X5R.sdf', '/opt/xchem-fragalysis-2/maxwin/openbind-hippo/a71ev2a/openbind_a71ev2a_c1_scaffold_products.sdf', '/opt/xchem-fragalysis-2/maxwin/openbind-hippo/a71ev2a/cycle_01/bulkdock/openbind_a71ev2a_c1_scaffold_products.sdf', '/opt/xchem-fragalysis-2/maxwin/openbind-hippo/a71ev2a/cycle_01/bulkdock/openbind_a71ev2a_c1_scaffolds.sdf']

>  <fragmenstein_runtime>  (730) 
3.564894

$$$$
C10642-P176
     RDKit          3D

 14 14  0  0  0  0  0  0  0  0999 V2000
    7.8908   11.8229   25.7827 F   0  0  0  0  0  0  0  0  0  0  0  0
    8.2741   11.1680   24.6628 C   0  0  0  0  0  0  0  0  0  0  0  0
    7.1916   10.5202   24.1902 F   0  0  0  0  0  0  0  0  0  0  0  0
    9.1659   10.2191   25.0095 F   0  0  0  0  0  0  0  0  0  0  0  0
    8.8550   12.1100   23.6519 C   0  0  0  0  0  0  0  0  0  0  0  0
   10.0463   12.8537   24.2260 C   0  0  0  0  0  0  0  0  0  0  0  0
   10.3947   13.9022   23.3291 O   0  0  0  0  0  0  0  0  0  0  0  0
   11.6183   13.6297   22.7142 N   0  0  0  0  0  0  0  0  0  0  0  0
   11.6953   14.1620   21.5271 C   0  0  0  0  0  0  0  0  0  0  0  0
   10.7106   14.9969   20.8748 C   0  0  0  0  0  0  0  0  0  0  0  0
   10.6321   15.2261   19.5186 C   0  0  0  0  0  0  0  0  0  0  0  0
    9.6667   16.1624   19.3008 O   0  0  0  0  0  0  0  0  0  0  0  0
    9.2049   16.4547   20.5465 C   0  0  0  0  0  0  0  0  0  0  0  0
    9.7484   15.7532   21.5100 N   0  0  0  0  0  0  0  0  0  0  0  0
  1  2  1  0
  2  3  1  0
  2  4  1  0
  2  5  1  0
  5  6  1  0
  6  7  1  0
  7  8  1  0
  8  9  2  3
  9 10  1  0
 10 11  2  0
 11 12  1  0
 12 13  1  0
 13 14  2  0
 14 10  1  0
M  END
>  <ref_pdb>  (731) 
A3392a

>  <subsites>  (731) 
1 - Active Site

>  <HIPPO Compound ID>  (731) 
11204

>  <energy_score>  (731) 
-18.636665

>  <fragmenstein_mode>  (731) 
expansion

>  <scratch_subdir>  (731) 
/opt/xchem-fragalysis-2/maxwin/BulkDock/SCRATCH/512203/C10642-P176

>  <smiles>  (731) 
FC(F)(F)CCON=Cc1cocn1

>  <alias>  (731) 
C10642-P176

>  <ref_mols>  (731) 
A3392a,A1775a

>  <inspiration_score>  (731) 
None

>  <tags>  (731) 
BulkDock Fragalysis export,fragmenstein_placed,openbind_a71ev2a_c1_knitwork_impure,openbind_a71ev2a_c1_scaffolds

>  <fragmenstein_outcome>  (731) 
acceptable

>  <fragmenstein_error>  (731) 


>  <distance_score>  (731) 
0.820231

>  <inchikey>  (731) 
FXORYDYYSQMRDK-UHFFFAOYSA-N

>  <name>  (731) 
C10642-P176

>  <HIPPO Pose ID>  (731) 
394426

>  <Energy>  (731) 
32.393571

>  <exports>  (731) 
['/opt/xchem-fragalysis-2/maxwin/BulkDock/OUTPUTS/openbind_a71ev2a_c1_knitwork_impure_165VXJF.sdf', '/opt/xchem-fragalysis-2/maxwin/BulkDock/OUTPUTS/openbind_a71ev2a_c1_knitwork_impure_1B07QS4.sdf', '/opt/xchem-fragalysis-2/maxwin/BulkDock/OUTPUTS/openbind_a71ev2a_c1_knitwork_impure_1B07X5R.sdf', '/opt/xchem-fragalysis-2/maxwin/openbind-hippo/a71ev2a/openbind_a71ev2a_c1_scaffold_products.sdf', '/opt/xchem-fragalysis-2/maxwin/openbind-hippo/a71ev2a/cycle_01/bulkdock/openbind_a71ev2a_c1_scaffold_products.sdf', '/opt/xchem-fragalysis-2/maxwin/openbind-hippo/a71ev2a/cycle_01/bulkdock/openbind_a71ev2a_c1_scaffolds.sdf']

>  <fragmenstein_runtime>  (731) 
1.96878

$$$$
C11338-P54
     RDKit          3D

 17 19  0  0  0  0  0  0  0  0999 V2000
   16.8812   -3.8175   21.2600 O   0  0  0  0  0  0  0  0  0  0  0  0
   17.8043   -3.9954   20.4706 C   0  0  0  0  0  0  0  0  0  0  0  0
   19.1674   -4.3934   20.9665 C   0  0  0  0  0  0  0  0  0  0  0  0
   20.1392   -3.2323   20.9683 C   0  0  0  0  0  0  0  0  0  0  0  0
   20.6332   -2.9082   19.5664 C   0  0  0  0  0  0  0  0  0  0  0  0
   19.5776   -2.2885   18.6627 C   0  0  0  0  0  0  0  0  0  0  0  0
   18.4012   -3.1203   18.2434 C   0  0  0  0  0  0  0  0  0  0  0  0
   17.5850   -3.8716   19.0021 C   0  0  0  0  0  0  0  0  0  0  0  0
   16.3894   -4.4637   18.3882 C   0  0  0  0  0  0  0  0  0  0  0  0
   15.2419   -3.7071   18.1036 C   0  0  0  0  0  0  0  0  0  0  0  0
   14.1200   -4.2969   17.5225 C   0  0  0  0  0  0  0  0  0  0  0  0
   14.0939   -5.6593   17.2188 C   0  0  0  0  0  0  0  0  0  0  0  0
   15.2476   -6.3948   17.4990 C   0  0  0  0  0  0  0  0  0  0  0  0
   15.5394   -7.7203   17.3239 N   0  0  0  0  0  0  0  0  0  0  0  0
   16.7984   -8.0552   17.6558 N   0  0  0  0  0  0  0  0  0  0  0  0
   17.3102   -6.9098   18.1139 C   0  0  0  0  0  0  0  0  0  0  0  0
   16.3925   -5.8342   18.0594 C   0  0  0  0  0  0  0  0  0  0  0  0
  1  2  2  0
  2  3  1  0
  3  4  1  0
  4  5  1  0
  5  6  1  0
  6  7  1  0
  7  8  2  0
  8  9  1  0
  9 10  2  0
 10 11  1  0
 11 12  2  0
 12 13  1  0
 13 14  1  0
 14 15  1  0
 15 16  2  0
 16 17  1  0
  8  2  1  0
 17  9  1  0
 17 13  2  0
M  END
>  <ref_pdb>  (732) 
A0341a

>  <subsites>  (732) 
2 - A3977/A/202/1

>  <HIPPO Compound ID>  (732) 
11605

>  <energy_score>  (732) 
-32.932365

>  <fragmenstein_mode>  (732) 
expansion

>  <scratch_subdir>  (732) 
/opt/xchem-fragalysis-2/maxwin/BulkDock/SCRATCH/512203/C11338-P54

>  <smiles>  (732) 
O=C1CCCCC=C1c1cccc2[nH]ncc12

>  <alias>  (732) 
C11338-P54

>  <ref_mols>  (732) 
A0497a,A0341a

>  <inspiration_score>  (732) 
None

>  <tags>  (732) 
BulkDock Fragalysis export,fragmenstein_placed,openbind_a71ev2a_c1_knitwork_impure,openbind_a71ev2a_c1_scaffolds

>  <fragmenstein_outcome>  (732) 
acceptable

>  <fragmenstein_error>  (732) 


>  <distance_score>  (732) 
0.9647

>  <inchikey>  (732) 
LCCXSDXPWBGFAI-UHFFFAOYSA-N

>  <name>  (732) 
C11338-P54

>  <HIPPO Pose ID>  (732) 
395528

>  <Energy>  (732) 
62.910335

>  <exports>  (732) 
['/opt/xchem-fragalysis-2/maxwin/BulkDock/OUTPUTS/openbind_a71ev2a_c1_knitwork_impure_165VXJF.sdf', '/opt/xchem-fragalysis-2/maxwin/BulkDock/OUTPUTS/openbind_a71ev2a_c1_knitwork_impure_1B07QS4.sdf', '/opt/xchem-fragalysis-2/maxwin/BulkDock/OUTPUTS/openbind_a71ev2a_c1_knitwork_impure_1B07X5R.sdf', '/opt/xchem-fragalysis-2/maxwin/openbind-hippo/a71ev2a/openbind_a71ev2a_c1_scaffold_products.sdf', '/opt/xchem-fragalysis-2/maxwin/openbind-hippo/a71ev2a/cycle_01/bulkdock/openbind_a71ev2a_c1_scaffold_products.sdf', '/opt/xchem-fragalysis-2/maxwin/openbind-hippo/a71ev2a/cycle_01/bulkdock/openbind_a71ev2a_c1_scaffolds.sdf']

>  <fragmenstein_runtime>  (732) 
6.406502

$$$$
C1791-P191
     RDKit          3D

 15 17  0  0  0  0  0  0  0  0999 V2000
    7.1869   10.6264   25.3498 C   0  0  0  0  0  0  0  0  0  0  0  0
    7.8232    9.6865   24.3041 C   0  0  0  0  0  0  0  0  0  0  0  0
    9.1423   10.1202   23.6556 C   0  0  0  0  0  0  0  0  0  0  0  0
    9.2246   11.5802   23.6882 C   0  0  0  0  0  0  0  0  0  0  0  0
   10.2044   12.2338   23.0432 O   0  0  0  0  0  0  0  0  0  0  0  0
    9.9487   13.5455   23.3228 C   0  0  0  0  0  0  0  0  0  0  0  0
   10.8445   14.5062   22.6479 C   0  0  0  0  0  0  0  0  0  0  0  0
   11.3893   15.5323   23.6321 C   0  0  0  0  0  0  0  0  0  0  0  0
   12.2802   16.5134   22.8943 C   0  0  0  0  0  0  0  0  0  0  0  0
   11.5757   17.1275   21.7876 N   0  0  0  0  0  0  0  0  0  0  0  0
   11.0899   16.1664   20.8049 C   0  0  0  0  0  0  0  0  0  0  0  0
   10.1363   15.1908   21.4786 C   0  0  0  0  0  0  0  0  0  0  0  0
    8.9248   13.7504   24.1346 N   0  0  0  0  0  0  0  0  0  0  0  0
    8.4280   12.4935   24.3180 C   0  0  0  0  0  0  0  0  0  0  0  0
    7.1957   12.1318   25.0298 C   0  0  0  0  0  0  0  0  0  0  0  0
  1  2  1  0
  2  3  1  0
  3  4  1  0
  4  5  1  0
  5  6  1  0
  6  7  1  0
  7  8  1  0
  8  9  1  0
  9 10  1  0
 10 11  1  0
 11 12  1  0
  6 13  2  0
 13 14  1  0
 14 15  1  0
 15  1  1  0
 14  4  2  0
 12  7  1  0
M  END
>  <ref_pdb>  (733) 
A3509b

>  <subsites>  (733) 
1 - Active Site

>  <HIPPO Compound ID>  (733) 
7529

>  <energy_score>  (733) 
-32.849301

>  <fragmenstein_mode>  (733) 
expansion

>  <scratch_subdir>  (733) 
/opt/xchem-fragalysis-2/maxwin/BulkDock/SCRATCH/512203/C1791-P191

>  <smiles>  (733) 
C1CCc2oc(C3CCNCC3)nc2C1

>  <alias>  (733) 
C1791-P191

>  <ref_mols>  (733) 
A3623a,A3509b

>  <inspiration_score>  (733) 
None

>  <tags>  (733) 
BulkDock Fragalysis export,fragmenstein_placed,openbind_a71ev2a_c1_knitwork_impure,openbind_a71ev2a_c1_scaffolds

>  <fragmenstein_outcome>  (733) 
acceptable

>  <fragmenstein_error>  (733) 


>  <distance_score>  (733) 
0.776668

>  <inchikey>  (733) 
FFAXPTHKURGIBP-UHFFFAOYSA-N

>  <name>  (733) 
C1791-P191

>  <HIPPO Pose ID>  (733) 
395654

>  <Energy>  (733) 
4.298992

>  <exports>  (733) 
['/opt/xchem-fragalysis-2/maxwin/BulkDock/OUTPUTS/openbind_a71ev2a_c1_knitwork_impure_165VXJF.sdf', '/opt/xchem-fragalysis-2/maxwin/BulkDock/OUTPUTS/openbind_a71ev2a_c1_knitwork_impure_1B07QS4.sdf', '/opt/xchem-fragalysis-2/maxwin/BulkDock/OUTPUTS/openbind_a71ev2a_c1_knitwork_impure_1B07X5R.sdf', '/opt/xchem-fragalysis-2/maxwin/openbind-hippo/a71ev2a/openbind_a71ev2a_c1_scaffold_products.sdf', '/opt/xchem-fragalysis-2/maxwin/openbind-hippo/a71ev2a/cycle_01/bulkdock/openbind_a71ev2a_c1_scaffold_products.sdf', '/opt/xchem-fragalysis-2/maxwin/openbind-hippo/a71ev2a/cycle_01/bulkdock/openbind_a71ev2a_c1_scaffolds.sdf']

>  <fragmenstein_runtime>  (733) 
33.713022

$$$$
C1795-P191
     RDKit          3D

 15 17  0  0  0  0  0  0  0  0999 V2000
   12.3343   16.3558   21.5647 C   0  0  0  0  0  0  0  0  0  0  0  0
   12.1833   16.2157   23.0749 C   0  0  0  0  0  0  0  0  0  0  0  0
   10.7113   16.2146   23.4683 C   0  0  0  0  0  0  0  0  0  0  0  0
    9.9950   15.1967   22.7307 N   0  0  0  0  0  0  0  0  0  0  0  0
    9.5368   14.0900   23.3539 C   0  0  0  0  0  0  0  0  0  0  0  0
    9.8670   12.8566   23.0441 N   0  0  0  0  0  0  0  0  0  0  0  0
    9.0817   11.9608   23.7256 C   0  0  0  0  0  0  0  0  0  0  0  0
    8.1349   12.5316   24.5402 C   0  0  0  0  0  0  0  0  0  0  0  0
    8.3205   14.2164   24.5815 S   0  0  0  0  0  0  0  0  0  0  0  0
    7.0484   11.8269   25.2451 C   0  0  0  0  0  0  0  0  0  0  0  0
    7.2694   10.3168   25.2460 C   0  0  0  0  0  0  0  0  0  0  0  0
    8.0610    9.7047   24.0838 C   0  0  0  0  0  0  0  0  0  0  0  0
    9.2430   10.4991   23.5297 C   0  0  0  0  0  0  0  0  0  0  0  0
   10.1343   15.1949   21.2766 C   0  0  0  0  0  0  0  0  0  0  0  0
   11.5996   15.2192   20.8618 C   0  0  0  0  0  0  0  0  0  0  0  0
  1  2  1  0
  2  3  1  0
  3  4  1  0
  4  5  1  0
  5  6  2  0
  6  7  1  0
  7  8  2  0
  8  9  1  0
  8 10  1  0
 10 11  1  0
 11 12  1  0
 12 13  1  0
  4 14  1  0
 14 15  1  0
 15  1  1  0
  9  5  1  0
 13  7  1  0
M  END
>  <ref_pdb>  (734) 
A3509b

>  <subsites>  (734) 
1 - Active Site

>  <HIPPO Compound ID>  (734) 
23812

>  <energy_score>  (734) 
-74.641627

>  <fragmenstein_mode>  (734) 
expansion

>  <scratch_subdir>  (734) 
/opt/xchem-fragalysis-2/maxwin/BulkDock/SCRATCH/512203/C1795-P191

>  <smiles>  (734) 
C1CCN(c2nc3c(s2)CCCC3)CC1

>  <alias>  (734) 
C1795-P191

>  <ref_mols>  (734) 
A3623a,A3509b

>  <inspiration_score>  (734) 
None

>  <tags>  (734) 
BulkDock Fragalysis export,fragmenstein_placed,openbind_a71ev2a_c1_knitwork_impure,openbind_a71ev2a_c1_scaffolds

>  <fragmenstein_outcome>  (734) 
acceptable

>  <fragmenstein_error>  (734) 


>  <distance_score>  (734) 
0.77859

>  <inchikey>  (734) 
AYNLZEGPVWLBPE-UHFFFAOYSA-N

>  <name>  (734) 
C1795-P191

>  <HIPPO Pose ID>  (734) 
395655

>  <Energy>  (734) 
-5.927513

>  <exports>  (734) 
['/opt/xchem-fragalysis-2/maxwin/BulkDock/OUTPUTS/openbind_a71ev2a_c1_knitwork_impure_165VXJF.sdf', '/opt/xchem-fragalysis-2/maxwin/BulkDock/OUTPUTS/openbind_a71ev2a_c1_knitwork_impure_1B07QS4.sdf', '/opt/xchem-fragalysis-2/maxwin/BulkDock/OUTPUTS/openbind_a71ev2a_c1_knitwork_impure_1B07X5R.sdf', '/opt/xchem-fragalysis-2/maxwin/openbind-hippo/a71ev2a/openbind_a71ev2a_c1_scaffold_products.sdf', '/opt/xchem-fragalysis-2/maxwin/openbind-hippo/a71ev2a/cycle_01/bulkdock/openbind_a71ev2a_c1_scaffold_products.sdf', '/opt/xchem-fragalysis-2/maxwin/openbind-hippo/a71ev2a/cycle_01/bulkdock/openbind_a71ev2a_c1_scaffolds.sdf']

>  <fragmenstein_runtime>  (734) 
16.488448

$$$$
C1805-P191
     RDKit          3D

 15 17  0  0  0  0  0  0  0  0999 V2000
   12.4398   15.6613   23.0514 C   0  0  0  0  0  0  0  0  0  0  0  0
   11.1594   16.1726   23.6842 C   0  0  0  0  0  0  0  0  0  0  0  0
    9.9009   15.7327   22.9315 C   0  0  0  0  0  0  0  0  0  0  0  0
    9.3983   14.4024   23.4348 C   0  0  0  0  0  0  0  0  0  0  0  0
    9.8626   13.2093   23.1272 N   0  0  0  0  0  0  0  0  0  0  0  0
    9.0776   12.2248   23.7059 C   0  0  0  0  0  0  0  0  0  0  0  0
    8.0568   12.6960   24.4992 C   0  0  0  0  0  0  0  0  0  0  0  0
    8.0703   14.3998   24.5308 S   0  0  0  0  0  0  0  0  0  0  0  0
    7.0121   11.9596   25.2317 C   0  0  0  0  0  0  0  0  0  0  0  0
    7.2711   10.1778   25.3401 S   0  0  0  0  0  0  0  0  0  0  0  0
    8.3158    9.8079   23.8936 C   0  0  0  0  0  0  0  0  0  0  0  0
    9.3851   10.7946   23.4502 C   0  0  0  0  0  0  0  0  0  0  0  0
   10.0543   15.7727   21.4054 C   0  0  0  0  0  0  0  0  0  0  0  0
   11.4268   15.3287   20.9173 C   0  0  0  0  0  0  0  0  0  0  0  0
   12.4774   16.0405   21.6465 N   0  0  0  0  0  0  0  0  0  0  0  0
  1  2  1  0
  2  3  1  0
  3  4  1  0
  4  5  2  0
  5  6  1  0
  6  7  2  0
  7  8  1  0
  7  9  1  0
  9 10  1  0
 10 11  1  0
 11 12  1  0
  3 13  1  0
 13 14  1  0
 14 15  1  0
 15  1  1  0
  8  4  1  0
 12  6  1  0
M  END
>  <ref_pdb>  (735) 
A3509b

>  <subsites>  (735) 
1 - Active Site

>  <HIPPO Compound ID>  (735) 
6258

>  <energy_score>  (735) 
-77.744258

>  <fragmenstein_mode>  (735) 
expansion

>  <scratch_subdir>  (735) 
/opt/xchem-fragalysis-2/maxwin/BulkDock/SCRATCH/512203/C1805-P191

>  <smiles>  (735) 
C1CC(c2nc3c(s2)CSCC3)CCN1

>  <alias>  (735) 
C1805-P191

>  <ref_mols>  (735) 
A3623a,A3509b

>  <inspiration_score>  (735) 
None

>  <tags>  (735) 
BulkDock Fragalysis export,fragmenstein_placed,openbind_a71ev2a_c1_knitwork_impure,openbind_a71ev2a_c1_scaffolds

>  <fragmenstein_outcome>  (735) 
acceptable

>  <fragmenstein_error>  (735) 


>  <distance_score>  (735) 
0.94834

>  <inchikey>  (735) 
KVNQCSIGNRPHHM-UHFFFAOYSA-N

>  <name>  (735) 
C1805-P191

>  <HIPPO Pose ID>  (735) 
395657

>  <Energy>  (735) 
9.655864

>  <exports>  (735) 
['/opt/xchem-fragalysis-2/maxwin/BulkDock/OUTPUTS/openbind_a71ev2a_c1_knitwork_impure_165VXJF.sdf', '/opt/xchem-fragalysis-2/maxwin/BulkDock/OUTPUTS/openbind_a71ev2a_c1_knitwork_impure_1B07QS4.sdf', '/opt/xchem-fragalysis-2/maxwin/BulkDock/OUTPUTS/openbind_a71ev2a_c1_knitwork_impure_1B07X5R.sdf', '/opt/xchem-fragalysis-2/maxwin/openbind-hippo/a71ev2a/openbind_a71ev2a_c1_scaffold_products.sdf', '/opt/xchem-fragalysis-2/maxwin/openbind-hippo/a71ev2a/cycle_01/bulkdock/openbind_a71ev2a_c1_scaffold_products.sdf', '/opt/xchem-fragalysis-2/maxwin/openbind-hippo/a71ev2a/cycle_01/bulkdock/openbind_a71ev2a_c1_scaffolds.sdf']

>  <fragmenstein_runtime>  (735) 
50.556955

$$$$
C1814-P191
     RDKit          3D

 16 18  0  0  0  0  0  0  0  0999 V2000
    8.2405   14.3681   24.6417 C   0  0  0  0  0  0  0  0  0  0  0  0
    7.6619   13.2715   25.1708 N   0  0  0  0  0  0  0  0  0  0  0  0
    8.0221   12.0782   24.6549 C   0  0  0  0  0  0  0  0  0  0  0  0
    8.9897   11.9379   23.6686 C   0  0  0  0  0  0  0  0  0  0  0  0
    9.5794   13.1040   23.1529 C   0  0  0  0  0  0  0  0  0  0  0  0
    9.1914   14.3565   23.6253 C   0  0  0  0  0  0  0  0  0  0  0  0
    9.7208   15.6780   23.1030 C   0  0  1  0  0  0  0  0  0  0  0  0
   11.0655   16.0642   23.7405 C   0  0  0  0  0  0  0  0  0  0  0  0
   12.2740   15.6292   22.9224 C   0  0  0  0  0  0  0  0  0  0  0  0
   12.1171   16.0112   21.4555 C   0  0  0  0  0  0  0  0  0  0  0  0
   10.9365   15.3551   20.9091 N   0  0  0  0  0  0  0  0  0  0  0  0
    9.7176   15.8242   21.5641 C   0  0  0  0  0  0  0  0  0  0  0  0
    9.4711   10.5898   23.2267 C   0  0  0  0  0  0  0  0  0  0  0  0
    8.7117    9.3631   23.7017 C   0  0  0  0  0  0  0  0  0  0  0  0
    7.4479    9.6349   24.4815 C   0  0  0  0  0  0  0  0  0  0  0  0
    7.3895   10.8947   25.3006 C   0  0  0  0  0  0  0  0  0  0  0  0
  1  2  2  0
  2  3  1  0
  3  4  2  0
  4  5  1  0
  5  6  2  0
  7  6  1  6
  7  8  1  0
  8  9  1  0
  9 10  1  0
 10 11  1  0
 11 12  1  0
  4 13  1  0
 13 14  1  0
 14 15  1  0
 15 16  1  0
  6  1  1  0
 12  7  1  0
 16  3  1  0
M  END
>  <ref_pdb>  (736) 
A3509b

>  <subsites>  (736) 
1 - Active Site

>  <HIPPO Compound ID>  (736) 
39872

>  <energy_score>  (736) 
-26.820697

>  <fragmenstein_mode>  (736) 
expansion

>  <scratch_subdir>  (736) 
/opt/xchem-fragalysis-2/maxwin/BulkDock/SCRATCH/512203/C1814-P191

>  <smiles>  (736) 
c1nc2c(cc1[C@H]1CCCNC1)CCCC2

>  <alias>  (736) 
C1814-P191

>  <ref_mols>  (736) 
A3623a,A3509b

>  <inspiration_score>  (736) 
None

>  <tags>  (736) 
BulkDock Fragalysis export,fragmenstein_placed,openbind_a71ev2a_c1_knitwork_impure,openbind_a71ev2a_c1_scaffolds

>  <fragmenstein_outcome>  (736) 
acceptable

>  <fragmenstein_error>  (736) 


>  <distance_score>  (736) 
0.928082

>  <inchikey>  (736) 
KOQQXKYWQMMEBA-UHFFFAOYSA-N

>  <name>  (736) 
C1814-P191

>  <HIPPO Pose ID>  (736) 
395659

>  <Energy>  (736) 
45.590294

>  <exports>  (736) 
['/opt/xchem-fragalysis-2/maxwin/BulkDock/OUTPUTS/openbind_a71ev2a_c1_knitwork_impure_165VXJF.sdf', '/opt/xchem-fragalysis-2/maxwin/BulkDock/OUTPUTS/openbind_a71ev2a_c1_knitwork_impure_1B07QS4.sdf', '/opt/xchem-fragalysis-2/maxwin/BulkDock/OUTPUTS/openbind_a71ev2a_c1_knitwork_impure_1B07X5R.sdf', '/opt/xchem-fragalysis-2/maxwin/openbind-hippo/a71ev2a/openbind_a71ev2a_c1_scaffold_products.sdf', '/opt/xchem-fragalysis-2/maxwin/openbind-hippo/a71ev2a/cycle_01/bulkdock/openbind_a71ev2a_c1_scaffold_products.sdf', '/opt/xchem-fragalysis-2/maxwin/openbind-hippo/a71ev2a/cycle_01/bulkdock/openbind_a71ev2a_c1_scaffolds.sdf']

>  <fragmenstein_runtime>  (736) 
13.343484

$$$$
C3508-P195
     RDKit          3D

 24 26  0  0  0  0  0  0  0  0999 V2000
    4.1167   11.4714    0.4276 C   0  0  0  0  0  0  0  0  0  0  0  0
    3.9533   12.9964    0.5532 C   0  0  0  0  0  0  0  0  0  0  0  0
    3.2142   13.2995    1.8864 C   0  0  0  0  0  0  0  0  0  0  0  0
    3.0540   13.4909   -0.5987 C   0  0  0  0  0  0  0  0  0  0  0  0
    5.3316   13.7266    0.4960 C   0  0  2  0  0  0  0  0  0  0  0  0
    6.2188   13.3732   -0.7154 C   0  0  0  0  0  0  0  0  0  0  0  0
    7.3496   14.2618   -0.8616 N   0  0  0  0  0  0  0  0  0  0  0  0
    8.2043   14.6020   -2.1017 C   0  0  0  0  0  0  0  0  0  0  0  0
    8.0822   14.2771   -3.2187 O   0  0  0  0  0  0  0  0  0  0  0  0
    9.3902   15.5275   -1.6851 C   0  0  0  0  0  0  0  0  0  0  0  0
   10.3693   15.0643   -0.5753 C   0  0  0  0  0  0  0  0  0  0  0  0
   10.4881   16.5388   -0.1455 C   0  0  0  0  0  0  0  0  0  0  0  0
    9.1312   16.7943   -0.8297 C   0  0  0  0  0  0  0  0  0  0  0  0
    6.0176   13.4598    1.7393 N   0  0  0  0  0  0  0  0  0  0  0  0
    7.2212   14.1452    2.3734 C   0  0  0  0  0  0  0  0  0  0  0  0
    7.9086   14.9878    1.9670 O   0  0  0  0  0  0  0  0  0  0  0  0
    7.3478   13.6266    3.7095 C   0  0  0  0  0  0  0  0  0  0  0  0
    7.3074   14.3889    4.8852 C   0  0  0  0  0  0  0  0  0  0  0  0
    7.2203   13.6247    5.9718 N   0  0  0  0  0  0  0  0  0  0  0  0
    7.2965   12.3187    5.5079 O   0  0  0  0  0  0  0  0  0  0  0  0
    7.3555   12.3191    4.1488 C   0  0  0  0  0  0  0  0  0  0  0  0
    7.2910   11.0281    3.2789 C   0  0  0  0  0  0  0  0  0  0  0  0
    8.4310   10.0537    3.2436 C   0  0  0  0  0  0  0  0  0  0  0  0
    8.1669   10.9237    2.0535 C   0  0  0  0  0  0  0  0  0  0  0  0
  1  2  1  0
  2  3  1  0
  2  4  1  0
  2  5  1  0
  5  6  1  6
  6  7  1  0
  7  8  1  0
  8  9  2  0
  8 10  1  0
 10 11  1  0
 11 12  1  0
 12 13  1  0
  5 14  1  0
 14 15  1  0
 15 16  2  0
 15 17  1  0
 17 18  1  0
 18 19  2  0
 19 20  1  0
 20 21  1  0
 21 22  1  0
 22 23  1  0
 23 24  1  0
 13 10  1  0
 21 17  2  0
 24 22  1  0
M  END
>  <ref_pdb>  (737) 
A3612a

>  <subsites>  (737) 
1 - Active Site,3 - A0541/A/147/1

>  <HIPPO Compound ID>  (737) 
40659

>  <energy_score>  (737) 
-45.540413

>  <fragmenstein_mode>  (737) 
expansion

>  <scratch_subdir>  (737) 
/opt/xchem-fragalysis-2/maxwin/BulkDock/SCRATCH/512203/C3508-P195

>  <smiles>  (737) 
CC(C)(C)[C@H](CNC(=O)C1CCC1)NC(=O)c1cnoc1C1CC1

>  <alias>  (737) 
C3508-P195

>  <ref_mols>  (737) 
A0541a,A3612a

>  <inspiration_score>  (737) 
None

>  <tags>  (737) 
BulkDock Fragalysis export,fragmenstein_placed,openbind_a71ev2a_c1_knitwork_impure,openbind_a71ev2a_c1_scaffolds

>  <fragmenstein_outcome>  (737) 
acceptable

>  <fragmenstein_error>  (737) 


>  <distance_score>  (737) 
0.988173

>  <inchikey>  (737) 
UTNOHUVGODOWSF-UHFFFAOYSA-N

>  <name>  (737) 
C3508-P195

>  <HIPPO Pose ID>  (737) 
395808

>  <Energy>  (737) 
32.95236

>  <exports>  (737) 
['/opt/xchem-fragalysis-2/maxwin/BulkDock/OUTPUTS/openbind_a71ev2a_c1_knitwork_impure_165VXJF.sdf', '/opt/xchem-fragalysis-2/maxwin/BulkDock/OUTPUTS/openbind_a71ev2a_c1_knitwork_impure_1B07QS4.sdf', '/opt/xchem-fragalysis-2/maxwin/BulkDock/OUTPUTS/openbind_a71ev2a_c1_knitwork_impure_1B07X5R.sdf', '/opt/xchem-fragalysis-2/maxwin/openbind-hippo/a71ev2a/openbind_a71ev2a_c1_scaffold_products.sdf', '/opt/xchem-fragalysis-2/maxwin/openbind-hippo/a71ev2a/cycle_01/bulkdock/openbind_a71ev2a_c1_scaffold_products.sdf', '/opt/xchem-fragalysis-2/maxwin/openbind-hippo/a71ev2a/cycle_01/bulkdock/openbind_a71ev2a_c1_scaffolds.sdf']

>  <fragmenstein_runtime>  (737) 
89.326395

$$$$
C29723-P77
     RDKit          3D

 11 11  0  0  0  0  0  0  0  0999 V2000
    5.5131   14.7382   21.9613 C   0  0  0  0  0  0  0  0  0  0  0  0
    6.8970   14.4955   22.1764 O   0  0  0  0  0  0  0  0  0  0  0  0
    7.3820   15.1902   23.3267 C   0  0  0  0  0  0  0  0  0  0  0  0
    7.3343   14.2978   24.5667 C   0  0  2  0  0  0  0  0  0  0  0  0
    7.5354   15.0609   25.7641 O   0  0  0  0  0  0  0  0  0  0  0  0
    8.4227   13.2214   24.4677 C   0  0  0  0  0  0  0  0  0  0  0  0
    8.0227   11.9349   24.9934 N   0  0  0  0  0  0  0  0  0  0  0  0
    7.0652   11.6741   25.9286 C   0  0  0  0  0  0  0  0  0  0  0  0
    6.9948   10.3104   25.9775 C   0  0  0  0  0  0  0  0  0  0  0  0
    7.9446    9.7430   25.1728 N   0  0  0  0  0  0  0  0  0  0  0  0
    8.5467   10.7445   24.5830 C   0  0  0  0  0  0  0  0  0  0  0  0
  1  2  1  0
  2  3  1  0
  3  4  1  0
  4  5  1  1
  4  6  1  0
  6  7  1  0
  7  8  1  0
  8  9  2  0
  9 10  1  0
 10 11  2  0
 11  7  1  0
M  END
>  <ref_pdb>  (738) 
A0719a

>  <subsites>  (738) 
1 - Active Site

>  <HIPPO Compound ID>  (738) 
32012

>  <energy_score>  (738) 
-0.500216

>  <fragmenstein_mode>  (738) 
expansion

>  <scratch_subdir>  (738) 
/opt/xchem-fragalysis-2/maxwin/BulkDock/SCRATCH/512203/C29723-P77

>  <smiles>  (738) 
COC[C@H](O)Cn1ccnc1

>  <alias>  (738) 
C29723-P77

>  <ref_mols>  (738) 
A1209a,A0719a

>  <inspiration_score>  (738) 
None

>  <tags>  (738) 
BulkDock Fragalysis export,fragmenstein_placed,openbind_a71ev2a_c1_knitwork_impure,openbind_a71ev2a_c1_scaffolds

>  <fragmenstein_outcome>  (738) 
acceptable

>  <fragmenstein_error>  (738) 


>  <distance_score>  (738) 
0.994772

>  <inchikey>  (738) 
PFPNMXGZZXVBGJ-UHFFFAOYSA-N

>  <name>  (738) 
C29723-P77

>  <HIPPO Pose ID>  (738) 
397332

>  <Energy>  (738) 
39.843804

>  <exports>  (738) 
['/opt/xchem-fragalysis-2/maxwin/BulkDock/OUTPUTS/openbind_a71ev2a_c1_knitwork_impure_165VXJF.sdf', '/opt/xchem-fragalysis-2/maxwin/BulkDock/OUTPUTS/openbind_a71ev2a_c1_knitwork_impure_1B07QS4.sdf', '/opt/xchem-fragalysis-2/maxwin/BulkDock/OUTPUTS/openbind_a71ev2a_c1_knitwork_impure_1B07X5R.sdf', '/opt/xchem-fragalysis-2/maxwin/openbind-hippo/a71ev2a/openbind_a71ev2a_c1_scaffold_products.sdf', '/opt/xchem-fragalysis-2/maxwin/openbind-hippo/a71ev2a/cycle_01/bulkdock/openbind_a71ev2a_c1_scaffold_products.sdf', '/opt/xchem-fragalysis-2/maxwin/openbind-hippo/a71ev2a/cycle_01/bulkdock/openbind_a71ev2a_c1_scaffolds.sdf']

>  <fragmenstein_runtime>  (738) 
2.624748

$$$$
C14594-P391
     RDKit          3D

 23 24  0  0  0  0  0  0  0  0999 V2000
    6.4382   -8.9504   11.3000 C   0  0  0  0  0  0  0  0  0  0  0  0
    7.7010   -8.4933   10.5616 C   0  0  0  0  0  0  0  0  0  0  0  0
    7.8819   -9.3766    9.3152 C   0  0  0  0  0  0  0  0  0  0  0  0
    8.7550   -8.7129    8.4152 O   0  0  0  0  0  0  0  0  0  0  0  0
    7.5688   -7.0230   10.1028 C   0  0  0  0  0  0  0  0  0  0  0  0
    6.7776   -6.8742    8.9330 O   0  0  0  0  0  0  0  0  0  0  0  0
    8.8304   -8.5444   11.5020 N   0  0  0  0  0  0  0  0  0  0  0  0
   10.1245   -9.4045   11.4745 C   0  0  0  0  0  0  0  0  0  0  0  0
   10.4421  -10.2348   10.7603 O   0  0  0  0  0  0  0  0  0  0  0  0
   10.9014   -8.7336   12.6470 N   0  0  0  0  0  0  0  0  0  0  0  0
   12.2139   -8.9055   13.0714 C   0  0  0  0  0  0  0  0  0  0  0  0
   13.0890   -9.7389   12.3877 C   0  0  0  0  0  0  0  0  0  0  0  0
   14.3772   -9.8649   12.8735 C   0  0  0  0  0  0  0  0  0  0  0  0
   14.8151   -9.2691   14.0030 N   0  0  0  0  0  0  0  0  0  0  0  0
   13.9243   -8.5029   14.6635 C   0  0  0  0  0  0  0  0  0  0  0  0
   14.2446   -7.9683   15.8959 O   0  0  0  0  0  0  0  0  0  0  0  0
   15.3427   -8.6029   16.5702 C   0  0  0  0  0  0  0  0  0  0  0  0
   14.9199   -9.9711   17.1302 C   0  0  0  0  0  0  0  0  0  0  0  0
   16.0051  -10.5907   18.0051 C   0  0  0  0  0  0  0  0  0  0  0  0
   16.4175   -9.6550   19.1364 C   0  0  0  0  0  0  0  0  0  0  0  0
   16.8319   -8.2872   18.6058 C   0  0  0  0  0  0  0  0  0  0  0  0
   15.7453   -7.6758   17.7286 C   0  0  0  0  0  0  0  0  0  0  0  0
   12.6435   -8.2430   14.2119 C   0  0  0  0  0  0  0  0  0  0  0  0
  1  2  1  0
  2  3  1  0
  3  4  1  0
  2  5  1  0
  5  6  1  0
  2  7  1  0
  7  8  1  0
  8  9  2  0
  8 10  1  0
 10 11  1  0
 11 12  2  0
 12 13  1  0
 13 14  2  0
 14 15  1  0
 15 16  1  0
 16 17  1  0
 17 18  1  0
 18 19  1  0
 19 20  1  0
 20 21  1  0
 21 22  1  0
 15 23  2  0
 23 11  1  0
 22 17  1  0
M  END
>  <ref_pdb>  (739) 
A4526a

>  <subsites>  (739) 
1 - Active Site,2 - A3977/A/202/1

>  <HIPPO Compound ID>  (739) 
7104

>  <energy_score>  (739) 
-15.034172

>  <fragmenstein_mode>  (739) 
expansion

>  <scratch_subdir>  (739) 
/opt/xchem-fragalysis-2/maxwin/BulkDock/SCRATCH/512203/C14594-P391

>  <smiles>  (739) 
CC(CO)(CO)NC(=O)Nc1ccnc(OC2CCCCC2)c1

>  <alias>  (739) 
C14594-P391

>  <ref_mols>  (739) 
A0395a,A4526a

>  <inspiration_score>  (739) 
None

>  <tags>  (739) 
BulkDock Fragalysis export,fragmenstein_placed,openbind_a71ev2a_c1_knitwork_impure,openbind_a71ev2a_c1_scaffolds

>  <fragmenstein_outcome>  (739) 
acceptable

>  <fragmenstein_error>  (739) 


>  <distance_score>  (739) 
0.691837

>  <inchikey>  (739) 
PHEZTEPOSWGUSQ-UHFFFAOYSA-N

>  <name>  (739) 
C14594-P391

>  <HIPPO Pose ID>  (739) 
397445

>  <Energy>  (739) 
8.988258

>  <exports>  (739) 
['/opt/xchem-fragalysis-2/maxwin/BulkDock/OUTPUTS/openbind_a71ev2a_c1_knitwork_impure_165VXJF.sdf', '/opt/xchem-fragalysis-2/maxwin/BulkDock/OUTPUTS/openbind_a71ev2a_c1_knitwork_impure_1B07QS4.sdf', '/opt/xchem-fragalysis-2/maxwin/BulkDock/OUTPUTS/openbind_a71ev2a_c1_knitwork_impure_1B07X5R.sdf', '/opt/xchem-fragalysis-2/maxwin/openbind-hippo/a71ev2a/openbind_a71ev2a_c1_scaffold_products.sdf', '/opt/xchem-fragalysis-2/maxwin/openbind-hippo/a71ev2a/cycle_01/bulkdock/openbind_a71ev2a_c1_scaffold_products.sdf', '/opt/xchem-fragalysis-2/maxwin/openbind-hippo/a71ev2a/cycle_01/bulkdock/openbind_a71ev2a_c1_scaffolds.sdf']

>  <fragmenstein_runtime>  (739) 
17.428358

$$$$
C2912-P404
     RDKit          3D

 13 14  0  0  0  0  0  0  0  0999 V2000
    6.4732   11.4783   25.8203 O   0  0  0  0  0  0  0  0  0  0  0  0
    7.2852   11.8391   24.9717 C   0  0  0  0  0  0  0  0  0  0  0  0
    8.5180   11.0442   24.7289 C   0  0  0  0  0  0  0  0  0  0  0  0
    9.4910   11.5143   23.3324 S   0  0  0  0  0  0  0  0  0  0  0  0
    9.1839   13.2231   23.3466 C   0  0  0  0  0  0  0  0  0  0  0  0
   10.2272   13.9675   22.8601 N   0  0  0  0  0  0  0  0  0  0  0  0
   10.7402   14.9786   23.7795 C   0  0  0  0  0  0  0  0  0  0  0  0
   12.0877   15.4795   23.2988 C   0  0  0  0  0  0  0  0  0  0  0  0
   12.0456   15.9693   21.8558 C   0  0  0  0  0  0  0  0  0  0  0  0
   11.3892   14.9434   20.9401 C   0  0  0  0  0  0  0  0  0  0  0  0
   10.0380   14.5226   21.5047 C   0  0  0  0  0  0  0  0  0  0  0  0
    8.0859   13.7655   23.7747 N   0  0  0  0  0  0  0  0  0  0  0  0
    7.0991   13.0150   24.3164 N   0  0  0  0  0  0  0  0  0  0  0  0
  1  2  2  0
  2  3  1  0
  3  4  1  0
  4  5  1  0
  5  6  1  0
  6  7  1  0
  7  8  1  0
  8  9  1  0
  9 10  1  0
 10 11  1  0
  5 12  2  0
 12 13  1  0
 13  2  1  0
 11  6  1  0
M  END
>  <ref_pdb>  (740) 
A4563a

>  <subsites>  (740) 
1 - Active Site

>  <HIPPO Compound ID>  (740) 
17883

>  <energy_score>  (740) 
-25.491959

>  <fragmenstein_mode>  (740) 
expansion

>  <scratch_subdir>  (740) 
/opt/xchem-fragalysis-2/maxwin/BulkDock/SCRATCH/511189/C2912-P404

>  <smiles>  (740) 
O=C1CSC(N2CCCCC2)=NN1

>  <alias>  (740) 
C2912-P404

>  <ref_mols>  (740) 
A4563a,A0875a

>  <inspiration_score>  (740) 
None

>  <tags>  (740) 
BulkDock Fragalysis export,fragmenstein_placed,openbind_a71ev2a_c1_knitwork_impure,openbind_a71ev2a_c1_scaffolds

>  <fragmenstein_outcome>  (740) 
acceptable

>  <fragmenstein_error>  (740) 


>  <distance_score>  (740) 
0.986744

>  <inchikey>  (740) 
PJDNNFWSTSASFT-UHFFFAOYSA-N

>  <name>  (740) 
C2912-P404

>  <HIPPO Pose ID>  (740) 
397733

>  <Energy>  (740) 
10.987459

>  <exports>  (740) 
['/opt/xchem-fragalysis-2/maxwin/BulkDock/OUTPUTS/openbind_a71ev2a_c1_knitwork_impure_165VXJF.sdf', '/opt/xchem-fragalysis-2/maxwin/BulkDock/OUTPUTS/openbind_a71ev2a_c1_knitwork_impure_1B07QS4.sdf', '/opt/xchem-fragalysis-2/maxwin/BulkDock/OUTPUTS/openbind_a71ev2a_c1_knitwork_impure_1B07X5R.sdf', '/opt/xchem-fragalysis-2/maxwin/openbind-hippo/a71ev2a/openbind_a71ev2a_c1_scaffold_products.sdf', '/opt/xchem-fragalysis-2/maxwin/openbind-hippo/a71ev2a/cycle_01/bulkdock/openbind_a71ev2a_c1_scaffold_products.sdf', '/opt/xchem-fragalysis-2/maxwin/openbind-hippo/a71ev2a/cycle_01/bulkdock/openbind_a71ev2a_c1_scaffolds.sdf']

>  <fragmenstein_runtime>  (740) 
1.566457

$$$$
C2865-P404
     RDKit          3D

 12 13  0  0  0  0  0  0  0  0999 V2000
    7.1725   11.6078   25.7539 O   0  0  0  0  0  0  0  0  0  0  0  0
    7.9807   11.8231   24.8678 C   0  0  0  0  0  0  0  0  0  0  0  0
    8.2731   13.1739   24.4024 C   0  0  0  0  0  0  0  0  0  0  0  0
    9.3083   13.0470   23.5696 C   0  0  0  0  0  0  0  0  0  0  0  0
   10.0839   14.0425   23.0197 N   0  0  0  0  0  0  0  0  0  0  0  0
   10.6038   15.1137   23.8617 C   0  0  0  0  0  0  0  0  0  0  0  0
   11.9477   15.5828   23.3279 C   0  0  0  0  0  0  0  0  0  0  0  0
   11.8878   15.9608   21.8521 C   0  0  0  0  0  0  0  0  0  0  0  0
   11.2557   14.8481   21.0255 C   0  0  0  0  0  0  0  0  0  0  0  0
    9.9061   14.4496   21.6130 C   0  0  0  0  0  0  0  0  0  0  0  0
    9.7837   11.6383   23.3999 C   0  0  0  0  0  0  0  0  0  0  0  0
    8.8029   10.7907   24.1725 C   0  0  0  0  0  0  0  0  0  0  0  0
  1  2  2  0
  2  3  1  0
  3  4  2  0
  4  5  1  0
  5  6  1  0
  6  7  1  0
  7  8  1  0
  8  9  1  0
  9 10  1  0
  4 11  1  0
 11 12  1  0
 12  2  1  0
 10  5  1  0
M  END
>  <ref_pdb>  (741) 
A4563a

>  <subsites>  (741) 
1 - Active Site

>  <HIPPO Compound ID>  (741) 
7839

>  <energy_score>  (741) 
-26.374627

>  <fragmenstein_mode>  (741) 
expansion

>  <scratch_subdir>  (741) 
/opt/xchem-fragalysis-2/maxwin/BulkDock/SCRATCH/511189/C2865-P404

>  <smiles>  (741) 
O=C1C=C(N2CCCCC2)CC1

>  <alias>  (741) 
C2865-P404

>  <ref_mols>  (741) 
A4563a,A0875a

>  <inspiration_score>  (741) 
None

>  <tags>  (741) 
BulkDock Fragalysis export,fragmenstein_placed,openbind_a71ev2a_c1_knitwork_impure,openbind_a71ev2a_c1_scaffolds

>  <fragmenstein_outcome>  (741) 
acceptable

>  <fragmenstein_error>  (741) 


>  <distance_score>  (741) 
0.853184

>  <inchikey>  (741) 
HJVFTZYOPBWDAT-UHFFFAOYSA-N

>  <name>  (741) 
C2865-P404

>  <HIPPO Pose ID>  (741) 
397774

>  <Energy>  (741) 
16.916517

>  <exports>  (741) 
['/opt/xchem-fragalysis-2/maxwin/BulkDock/OUTPUTS/openbind_a71ev2a_c1_knitwork_impure_165VXJF.sdf', '/opt/xchem-fragalysis-2/maxwin/BulkDock/OUTPUTS/openbind_a71ev2a_c1_knitwork_impure_1B07QS4.sdf', '/opt/xchem-fragalysis-2/maxwin/BulkDock/OUTPUTS/openbind_a71ev2a_c1_knitwork_impure_1B07X5R.sdf', '/opt/xchem-fragalysis-2/maxwin/openbind-hippo/a71ev2a/openbind_a71ev2a_c1_scaffold_products.sdf', '/opt/xchem-fragalysis-2/maxwin/openbind-hippo/a71ev2a/cycle_01/bulkdock/openbind_a71ev2a_c1_scaffold_products.sdf', '/opt/xchem-fragalysis-2/maxwin/openbind-hippo/a71ev2a/cycle_01/bulkdock/openbind_a71ev2a_c1_scaffolds.sdf']

>  <fragmenstein_runtime>  (741) 
1.328444

$$$$
C9947-P234
     RDKit          3D

 11 11  0  0  0  0  0  0  0  0999 V2000
   10.3640   14.9048   20.4485 O   0  0  0  0  0  0  0  0  0  0  0  0
    9.7340   15.2231   21.4514 C   0  0  0  0  0  0  0  0  0  0  0  0
   10.2852   15.0701   22.8403 C   0  0  0  0  0  0  0  0  0  0  0  0
    9.2356   14.5751   23.8307 C   0  0  0  0  0  0  0  0  0  0  0  0
    8.7746   13.1124   23.6419 C   0  0  1  0  0  0  0  0  0  0  0  0
    9.9600   12.1491   23.5898 C   0  0  0  0  0  0  0  0  0  0  0  0
    9.5087   10.7021   23.5662 C   0  0  0  0  0  0  0  0  0  0  0  0
    8.5419   10.4104   24.5812 N   0  0  0  0  0  0  0  0  0  0  0  0
    7.6917   11.2977   25.1455 C   0  0  0  0  0  0  0  0  0  0  0  0
    6.9068   10.9074   26.0046 O   0  0  0  0  0  0  0  0  0  0  0  0
    7.7962   12.7551   24.7708 C   0  0  0  0  0  0  0  0  0  0  0  0
  1  2  2  0
  2  3  1  0
  3  4  1  0
  5  4  1  1
  5  6  1  0
  6  7  1  0
  7  8  1  0
  8  9  1  0
  9 10  2  0
  9 11  1  0
 11  5  1  0
M  END
>  <ref_pdb>  (742) 
A3895a

>  <subsites>  (742) 
1 - Active Site

>  <HIPPO Compound ID>  (742) 
4080

>  <energy_score>  (742) 
-24.443042

>  <fragmenstein_mode>  (742) 
expansion

>  <scratch_subdir>  (742) 
/opt/xchem-fragalysis-2/maxwin/BulkDock/SCRATCH/511189/C9947-P234

>  <smiles>  (742) 
O=CCC[C@H]1CCNC(=O)C1

>  <alias>  (742) 
C9947-P234

>  <ref_mols>  (742) 
A1775a,A3895a

>  <inspiration_score>  (742) 
None

>  <tags>  (742) 
BulkDock Fragalysis export,fragmenstein_placed,openbind_a71ev2a_c1_knitwork_impure,openbind_a71ev2a_c1_scaffolds

>  <fragmenstein_outcome>  (742) 
acceptable

>  <fragmenstein_error>  (742) 


>  <distance_score>  (742) 
0.994346

>  <inchikey>  (742) 
GSETXYYFSRYMOU-UHFFFAOYSA-N

>  <name>  (742) 
C9947-P234

>  <HIPPO Pose ID>  (742) 
398669

>  <Energy>  (742) 
-12.034618

>  <exports>  (742) 
['/opt/xchem-fragalysis-2/maxwin/BulkDock/OUTPUTS/openbind_a71ev2a_c1_knitwork_impure_165VXJF.sdf', '/opt/xchem-fragalysis-2/maxwin/BulkDock/OUTPUTS/openbind_a71ev2a_c1_knitwork_impure_1B07QS4.sdf', '/opt/xchem-fragalysis-2/maxwin/BulkDock/OUTPUTS/openbind_a71ev2a_c1_knitwork_impure_1B07X5R.sdf', '/opt/xchem-fragalysis-2/maxwin/openbind-hippo/a71ev2a/openbind_a71ev2a_c1_scaffold_products.sdf', '/opt/xchem-fragalysis-2/maxwin/openbind-hippo/a71ev2a/cycle_01/bulkdock/openbind_a71ev2a_c1_scaffold_products.sdf', '/opt/xchem-fragalysis-2/maxwin/openbind-hippo/a71ev2a/cycle_01/bulkdock/openbind_a71ev2a_c1_scaffolds.sdf']

>  <fragmenstein_runtime>  (742) 
1.595157

$$$$
C11200-P153
     RDKit          3D

 13 13  0  0  0  0  0  0  0  0999 V2000
   11.1625   15.0347   23.6868 C   0  0  0  0  0  0  0  0  0  0  0  0
    9.8273   14.8226   23.0553 C   0  0  0  0  0  0  0  0  0  0  0  0
    8.8253   14.0317   23.4830 C   0  0  0  0  0  0  0  0  0  0  0  0
    7.5040   13.9961   22.7654 C   0  0  0  0  0  0  0  0  0  0  0  0
    6.7371   15.3102   22.8758 C   0  0  0  0  0  0  0  0  0  0  0  0
    8.9409   13.2657   24.7606 C   0  0  0  0  0  0  0  0  0  0  0  0
    9.3214   13.7690   25.8131 O   0  0  0  0  0  0  0  0  0  0  0  0
    8.5191   11.8546   24.7779 C   0  0  0  0  0  0  0  0  0  0  0  0
    9.1305   10.9099   23.9593 C   0  0  0  0  0  0  0  0  0  0  0  0
    8.7767    9.5869   24.1534 C   0  0  0  0  0  0  0  0  0  0  0  0
    7.8512    9.1852   25.0601 N   0  0  0  0  0  0  0  0  0  0  0  0
    7.2592   10.1319   25.8141 C   0  0  0  0  0  0  0  0  0  0  0  0
    7.5669   11.4713   25.7211 C   0  0  0  0  0  0  0  0  0  0  0  0
  1  2  1  0
  2  3  2  3
  3  4  1  0
  4  5  1  0
  3  6  1  0
  6  7  2  0
  6  8  1  0
  8  9  2  0
  9 10  1  0
 10 11  2  0
 11 12  1  0
 12 13  2  0
 13  8  1  0
M  END
>  <ref_pdb>  (743) 
A3207a

>  <subsites>  (743) 
1 - Active Site

>  <HIPPO Compound ID>  (743) 
9976

>  <energy_score>  (743) 
-33.635753

>  <fragmenstein_mode>  (743) 
expansion

>  <scratch_subdir>  (743) 
/opt/xchem-fragalysis-2/maxwin/BulkDock/SCRATCH/511189/C11200-P153

>  <smiles>  (743) 
CC=C(CC)C(=O)c1ccncc1

>  <alias>  (743) 
C11200-P153

>  <ref_mols>  (743) 
A3207a,A1779a

>  <inspiration_score>  (743) 
None

>  <tags>  (743) 
BulkDock Fragalysis export,fragmenstein_placed,openbind_a71ev2a_c1_knitwork_impure,openbind_a71ev2a_c1_scaffolds

>  <fragmenstein_outcome>  (743) 
acceptable

>  <fragmenstein_error>  (743) 


>  <distance_score>  (743) 
0.804637

>  <inchikey>  (743) 
YNVJQHLIXVUGMB-UHFFFAOYSA-N

>  <name>  (743) 
C11200-P153

>  <HIPPO Pose ID>  (743) 
398996

>  <Energy>  (743) 
37.598313

>  <exports>  (743) 
['/opt/xchem-fragalysis-2/maxwin/BulkDock/OUTPUTS/openbind_a71ev2a_c1_knitwork_impure_165VXJF.sdf', '/opt/xchem-fragalysis-2/maxwin/BulkDock/OUTPUTS/openbind_a71ev2a_c1_knitwork_impure_1B07QS4.sdf', '/opt/xchem-fragalysis-2/maxwin/BulkDock/OUTPUTS/openbind_a71ev2a_c1_knitwork_impure_1B07X5R.sdf', '/opt/xchem-fragalysis-2/maxwin/openbind-hippo/a71ev2a/openbind_a71ev2a_c1_scaffold_products.sdf', '/opt/xchem-fragalysis-2/maxwin/openbind-hippo/a71ev2a/cycle_01/bulkdock/openbind_a71ev2a_c1_scaffold_products.sdf', '/opt/xchem-fragalysis-2/maxwin/openbind-hippo/a71ev2a/cycle_01/bulkdock/openbind_a71ev2a_c1_scaffolds.sdf']

>  <fragmenstein_runtime>  (743) 
2.153954

$$$$
C11228-P153
     RDKit          3D

 17 17  0  0  0  0  0  0  0  0999 V2000
    9.0568   13.9921   25.9477 C   0  0  0  0  0  0  0  0  0  0  0  0
    8.1542   13.4028   24.8742 C   0  0  1  0  0  0  0  0  0  0  0  0
    8.4153   13.8882   23.4496 C   0  0  0  0  0  0  0  0  0  0  0  0
    7.9235   13.2518   22.5116 O   0  0  0  0  0  0  0  0  0  0  0  0
    9.1225   15.2418   23.2635 C   0  0  0  0  0  0  0  0  0  0  0  0
    9.6535   15.6123   21.8647 C   0  0  2  0  0  0  0  0  0  0  0  0
    8.6810   15.1992   20.7948 C   0  0  0  0  0  0  0  0  0  0  0  0
   11.1069   15.1396   21.5456 C   0  0  0  0  0  0  0  0  0  0  0  0
   11.4150   15.1398   20.0283 C   0  0  0  0  0  0  0  0  0  0  0  0
   12.0835   16.1265   22.1913 C   0  0  0  0  0  0  0  0  0  0  0  0
   11.3781   13.7573   22.1511 C   0  0  0  0  0  0  0  0  0  0  0  0
    8.0852   11.8860   24.9977 C   0  0  0  0  0  0  0  0  0  0  0  0
    8.9086   11.0166   24.2708 C   0  0  0  0  0  0  0  0  0  0  0  0
    8.7292    9.6487   24.4192 C   0  0  0  0  0  0  0  0  0  0  0  0
    7.8112    9.1015   25.2484 N   0  0  0  0  0  0  0  0  0  0  0  0
    7.0344    9.9495   25.9465 C   0  0  0  0  0  0  0  0  0  0  0  0
    7.1362   11.3254   25.8606 C   0  0  0  0  0  0  0  0  0  0  0  0
  2  1  1  1
  2  3  1  0
  3  4  2  0
  3  5  1  0
  5  6  1  0
  6  7  1  6
  6  8  1  0
  8  9  1  0
  8 10  1  0
  8 11  1  0
  2 12  1  0
 12 13  2  0
 13 14  1  0
 14 15  2  0
 15 16  1  0
 16 17  2  0
 17 12  1  0
M  END
>  <ref_pdb>  (744) 
A3207a

>  <subsites>  (744) 
1 - Active Site

>  <HIPPO Compound ID>  (744) 
2897

>  <energy_score>  (744) 
-23.837075

>  <fragmenstein_mode>  (744) 
expansion

>  <scratch_subdir>  (744) 
/opt/xchem-fragalysis-2/maxwin/BulkDock/SCRATCH/511189/C11228-P153

>  <smiles>  (744) 
C[C@@H](C(=O)C[C@H](C)C(C)(C)C)c1ccncc1

>  <alias>  (744) 
C11228-P153

>  <ref_mols>  (744) 
A3207a,A1779a

>  <inspiration_score>  (744) 
None

>  <tags>  (744) 
BulkDock Fragalysis export,fragmenstein_placed,openbind_a71ev2a_c1_knitwork_impure,openbind_a71ev2a_c1_scaffolds

>  <fragmenstein_outcome>  (744) 
acceptable

>  <fragmenstein_error>  (744) 


>  <distance_score>  (744) 
0.978405

>  <inchikey>  (744) 
GZBXXUHFYNAKIR-UHFFFAOYSA-N

>  <name>  (744) 
C11228-P153

>  <HIPPO Pose ID>  (744) 
399003

>  <Energy>  (744) 
71.255749

>  <exports>  (744) 
['/opt/xchem-fragalysis-2/maxwin/BulkDock/OUTPUTS/openbind_a71ev2a_c1_knitwork_impure_165VXJF.sdf', '/opt/xchem-fragalysis-2/maxwin/BulkDock/OUTPUTS/openbind_a71ev2a_c1_knitwork_impure_1B07QS4.sdf', '/opt/xchem-fragalysis-2/maxwin/BulkDock/OUTPUTS/openbind_a71ev2a_c1_knitwork_impure_1B07X5R.sdf', '/opt/xchem-fragalysis-2/maxwin/openbind-hippo/a71ev2a/openbind_a71ev2a_c1_scaffold_products.sdf', '/opt/xchem-fragalysis-2/maxwin/openbind-hippo/a71ev2a/cycle_01/bulkdock/openbind_a71ev2a_c1_scaffold_products.sdf', '/opt/xchem-fragalysis-2/maxwin/openbind-hippo/a71ev2a/cycle_01/bulkdock/openbind_a71ev2a_c1_scaffolds.sdf']

>  <fragmenstein_runtime>  (744) 
3.87348

$$$$
C2393-P153
     RDKit          3D

 11 11  0  0  0  0  0  0  0  0999 V2000
   10.5345   15.7292   23.2596 C   0  0  0  0  0  0  0  0  0  0  0  0
    9.9126   14.5187   22.5933 C   0  0  0  0  0  0  0  0  0  0  0  0
    8.3157   14.0714   23.3274 S   0  0  0  0  0  0  0  0  0  0  0  0
    8.8864   13.3425   24.8183 C   0  0  0  0  0  0  0  0  0  0  0  0
    9.2708   14.0242   25.7651 O   0  0  0  0  0  0  0  0  0  0  0  0
    8.8337   11.8400   24.9308 C   0  0  0  0  0  0  0  0  0  0  0  0
    9.4013   11.0931   23.7400 C   0  0  0  0  0  0  0  0  0  0  0  0
    9.4233    9.5869   23.9432 C   0  0  0  0  0  0  0  0  0  0  0  0
    8.2753    9.0171   24.6222 N   0  0  0  0  0  0  0  0  0  0  0  0
    7.4742    9.8341   25.5122 C   0  0  0  0  0  0  0  0  0  0  0  0
    7.4506   11.3299   25.2464 C   0  0  0  0  0  0  0  0  0  0  0  0
  1  2  1  0
  2  3  1  0
  3  4  1  0
  4  5  2  0
  4  6  1  0
  6  7  1  0
  7  8  1  0
  8  9  1  0
  9 10  1  0
 10 11  1  0
 11  6  1  0
M  END
>  <ref_pdb>  (745) 
A3207a

>  <subsites>  (745) 
1 - Active Site

>  <HIPPO Compound ID>  (745) 
18185

>  <energy_score>  (745) 
-20.61075

>  <fragmenstein_mode>  (745) 
expansion

>  <scratch_subdir>  (745) 
/opt/xchem-fragalysis-2/maxwin/BulkDock/SCRATCH/511189/C2393-P153

>  <smiles>  (745) 
CCSC(=O)C1CCNCC1

>  <alias>  (745) 
C2393-P153

>  <ref_mols>  (745) 
A3207a,A1779a

>  <inspiration_score>  (745) 
None

>  <tags>  (745) 
BulkDock Fragalysis export,fragmenstein_placed,openbind_a71ev2a_c1_knitwork_impure,openbind_a71ev2a_c1_scaffolds

>  <fragmenstein_outcome>  (745) 
acceptable

>  <fragmenstein_error>  (745) 


>  <distance_score>  (745) 
0.948803

>  <inchikey>  (745) 
ZVYACGZLRYTKSB-UHFFFAOYSA-N

>  <name>  (745) 
C2393-P153

>  <HIPPO Pose ID>  (745) 
399018

>  <Energy>  (745) 
0.413223

>  <exports>  (745) 
['/opt/xchem-fragalysis-2/maxwin/BulkDock/OUTPUTS/openbind_a71ev2a_c1_knitwork_impure_165VXJF.sdf', '/opt/xchem-fragalysis-2/maxwin/BulkDock/OUTPUTS/openbind_a71ev2a_c1_knitwork_impure_1B07QS4.sdf', '/opt/xchem-fragalysis-2/maxwin/BulkDock/OUTPUTS/openbind_a71ev2a_c1_knitwork_impure_1B07X5R.sdf', '/opt/xchem-fragalysis-2/maxwin/openbind-hippo/a71ev2a/openbind_a71ev2a_c1_scaffold_products.sdf', '/opt/xchem-fragalysis-2/maxwin/openbind-hippo/a71ev2a/cycle_01/bulkdock/openbind_a71ev2a_c1_scaffold_products.sdf', '/opt/xchem-fragalysis-2/maxwin/openbind-hippo/a71ev2a/cycle_01/bulkdock/openbind_a71ev2a_c1_scaffolds.sdf']

>  <fragmenstein_runtime>  (745) 
1.102794

$$$$
C2408-P153
     RDKit          3D

 15 15  0  0  0  0  0  0  0  0999 V2000
    9.3088    9.7910   23.6832 C   0  0  0  0  0  0  0  0  0  0  0  0
    9.2827   11.3171   23.6737 C   0  0  0  0  0  0  0  0  0  0  0  0
    8.7766   11.9615   24.9555 C   0  0  2  0  0  0  0  0  0  0  0  0
    7.4672   11.4145   25.4975 C   0  0  0  0  0  0  0  0  0  0  0  0
    8.8121   13.4878   25.0520 C   0  0  0  0  0  0  0  0  0  0  0  0
    9.1540   13.9498   26.1568 O   0  0  0  0  0  0  0  0  0  0  0  0
    8.4435   14.4528   23.8727 C   0  0  0  0  0  0  0  0  0  0  0  0
    7.2153   13.9528   23.1076 C   0  0  0  0  0  0  0  0  0  0  0  0
    8.0106   15.7961   24.5226 C   0  0  0  0  0  0  0  0  0  0  0  0
    9.6228   14.5903   22.9688 N   0  0  0  0  0  0  0  0  0  0  0  0
   10.8156   15.1141   23.6554 C   0  0  0  0  0  0  0  0  0  0  0  0
   12.0325   15.0300   22.7465 C   0  0  0  0  0  0  0  0  0  0  0  0
   11.8289   15.8343   21.4754 C   0  0  0  0  0  0  0  0  0  0  0  0
   10.5473   15.3961   20.7874 C   0  0  0  0  0  0  0  0  0  0  0  0
    9.3602   15.4001   21.7544 C   0  0  0  0  0  0  0  0  0  0  0  0
  1  2  1  0
  2  3  1  0
  3  4  1  6
  3  5  1  0
  5  6  2  0
  5  7  1  0
  7  8  1  0
  7  9  1  0
  7 10  1  0
 10 11  1  0
 11 12  1  0
 12 13  1  0
 13 14  1  0
 14 15  1  0
 15 10  1  0
M  END
>  <ref_pdb>  (746) 
A3207a

>  <subsites>  (746) 
1 - Active Site

>  <HIPPO Compound ID>  (746) 
12979

>  <energy_score>  (746) 
-46.034709

>  <fragmenstein_mode>  (746) 
expansion

>  <scratch_subdir>  (746) 
/opt/xchem-fragalysis-2/maxwin/BulkDock/SCRATCH/511189/C2408-P153

>  <smiles>  (746) 
CC[C@H](C)C(=O)C(C)(C)N1CCCCC1

>  <alias>  (746) 
C2408-P153

>  <ref_mols>  (746) 
A3207a,A1779a

>  <inspiration_score>  (746) 
None

>  <tags>  (746) 
BulkDock Fragalysis export,fragmenstein_placed,openbind_a71ev2a_c1_knitwork_impure,openbind_a71ev2a_c1_scaffolds

>  <fragmenstein_outcome>  (746) 
acceptable

>  <fragmenstein_error>  (746) 


>  <distance_score>  (746) 
0.958952

>  <inchikey>  (746) 
DJUNTQQNFNJVRB-UHFFFAOYSA-N

>  <name>  (746) 
C2408-P153

>  <HIPPO Pose ID>  (746) 
399024

>  <Energy>  (746) 
54.821901

>  <exports>  (746) 
['/opt/xchem-fragalysis-2/maxwin/BulkDock/OUTPUTS/openbind_a71ev2a_c1_knitwork_impure_165VXJF.sdf', '/opt/xchem-fragalysis-2/maxwin/BulkDock/OUTPUTS/openbind_a71ev2a_c1_knitwork_impure_1B07QS4.sdf', '/opt/xchem-fragalysis-2/maxwin/BulkDock/OUTPUTS/openbind_a71ev2a_c1_knitwork_impure_1B07X5R.sdf', '/opt/xchem-fragalysis-2/maxwin/openbind-hippo/a71ev2a/openbind_a71ev2a_c1_scaffold_products.sdf', '/opt/xchem-fragalysis-2/maxwin/openbind-hippo/a71ev2a/cycle_01/bulkdock/openbind_a71ev2a_c1_scaffold_products.sdf', '/opt/xchem-fragalysis-2/maxwin/openbind-hippo/a71ev2a/cycle_01/bulkdock/openbind_a71ev2a_c1_scaffolds.sdf']

>  <fragmenstein_runtime>  (746) 
7.695723

$$$$
C2040-P496
     RDKit          3D

 15 17  0  0  0  0  0  0  0  0999 V2000
    8.3095   13.2812   24.7061 C   0  0  0  0  0  0  0  0  0  0  0  0
    7.2984   13.4314   25.5327 N   0  0  0  0  0  0  0  0  0  0  0  0
    6.6943   14.5870   25.1334 C   0  0  0  0  0  0  0  0  0  0  0  0
    7.3649   15.1634   24.0750 C   0  0  0  0  0  0  0  0  0  0  0  0
    8.4001   14.3146   23.7999 N   0  0  0  0  0  0  0  0  0  0  0  0
    9.5014   14.4502   22.8627 C   0  0  2  0  0  0  0  0  0  0  0  0
   10.6310   15.3024   23.4503 C   0  0  0  0  0  0  0  0  0  0  0  0
   11.8075   15.3041   22.4834 C   0  0  0  0  0  0  0  0  0  0  0  0
   11.3913   15.7505   21.0843 C   0  0  0  0  0  0  0  0  0  0  0  0
   10.2875   14.9505   20.5450 N   0  0  0  0  0  0  0  0  0  0  0  0
    9.1333   14.9542   21.4559 C   0  0  0  0  0  0  0  0  0  0  0  0
    6.9851   16.4450   23.4274 C   0  0  0  0  0  0  0  0  0  0  0  0
    6.0508   17.2370   24.3630 C   0  0  0  0  0  0  0  0  0  0  0  0
    4.9407   16.3490   24.9590 C   0  0  0  0  0  0  0  0  0  0  0  0
    5.5111   15.1886   25.7996 C   0  0  0  0  0  0  0  0  0  0  0  0
  1  2  2  0
  2  3  1  0
  3  4  2  0
  4  5  1  0
  6  5  1  1
  6  7  1  0
  7  8  1  0
  8  9  1  0
  9 10  1  0
 10 11  1  0
  4 12  1  0
 12 13  1  0
 13 14  1  0
 14 15  1  0
  5  1  1  0
 11  6  1  0
 15  3  1  0
M  END
>  <ref_pdb>  (747) 
A4877a

>  <subsites>  (747) 
1 - Active Site

>  <HIPPO Compound ID>  (747) 
2040

>  <energy_score>  (747) 
-22.352123

>  <fragmenstein_mode>  (747) 
expansion

>  <scratch_subdir>  (747) 
/opt/xchem-fragalysis-2/maxwin/BulkDock/SCRATCH/511189/C2040-P496

>  <smiles>  (747) 
c1nc2c(n1[C@@H]1CCCNC1)CCCC2

>  <alias>  (747) 
C2040-P496

>  <ref_mols>  (747) 
A4877a,A3371a

>  <inspiration_score>  (747) 
None

>  <tags>  (747) 
BulkDock Fragalysis export,fragmenstein_placed,openbind_a71ev2a_c1_knitwork_impure,openbind_a71ev2a_c1_scaffolds

>  <fragmenstein_outcome>  (747) 
acceptable

>  <fragmenstein_error>  (747) 


>  <distance_score>  (747) 
0.892446

>  <inchikey>  (747) 
NVQPTGDZIZQWGQ-UHFFFAOYSA-N

>  <name>  (747) 
C2040-P496

>  <HIPPO Pose ID>  (747) 
399041

>  <Energy>  (747) 
24.932605

>  <exports>  (747) 
['/opt/xchem-fragalysis-2/maxwin/BulkDock/OUTPUTS/openbind_a71ev2a_c1_knitwork_impure_165VXJF.sdf', '/opt/xchem-fragalysis-2/maxwin/BulkDock/OUTPUTS/openbind_a71ev2a_c1_knitwork_impure_1B07QS4.sdf', '/opt/xchem-fragalysis-2/maxwin/BulkDock/OUTPUTS/openbind_a71ev2a_c1_knitwork_impure_1B07X5R.sdf', '/opt/xchem-fragalysis-2/maxwin/openbind-hippo/a71ev2a/openbind_a71ev2a_c1_scaffold_products.sdf', '/opt/xchem-fragalysis-2/maxwin/openbind-hippo/a71ev2a/cycle_01/bulkdock/openbind_a71ev2a_c1_scaffold_products.sdf', '/opt/xchem-fragalysis-2/maxwin/openbind-hippo/a71ev2a/cycle_01/bulkdock/openbind_a71ev2a_c1_scaffolds.sdf']

>  <fragmenstein_runtime>  (747) 
7.258999

$$$$
C2059-P496
     RDKit          3D

 15 17  0  0  0  0  0  0  0  0999 V2000
    8.3425   13.1985   24.4686 C   0  0  0  0  0  0  0  0  0  0  0  0
    7.3449   13.2414   25.3222 N   0  0  0  0  0  0  0  0  0  0  0  0
    6.6873   14.3958   25.0195 C   0  0  0  0  0  0  0  0  0  0  0  0
    7.2938   15.0689   23.9788 C   0  0  0  0  0  0  0  0  0  0  0  0
    8.3771   14.3043   23.6429 N   0  0  0  0  0  0  0  0  0  0  0  0
    9.4974   14.5690   22.7522 C   0  0  0  0  0  0  0  0  0  0  0  0
   10.6645   15.1847   23.5301 C   0  0  0  0  0  0  0  0  0  0  0  0
   11.8799   15.2682   22.6221 C   0  0  0  0  0  0  0  0  0  0  0  0
   11.6005   16.0604   21.4355 N   0  0  0  0  0  0  0  0  0  0  0  0
   10.4935   15.5146   20.6484 C   0  0  0  0  0  0  0  0  0  0  0  0
    9.2219   15.3967   21.4921 C   0  0  0  0  0  0  0  0  0  0  0  0
    6.8609   16.3903   23.4535 C   0  0  0  0  0  0  0  0  0  0  0  0
    5.4870   16.7830   24.0365 C   0  0  0  0  0  0  0  0  0  0  0  0
    5.3163   16.3963   25.5170 C   0  0  0  0  0  0  0  0  0  0  0  0
    5.4841   14.8825   25.7367 C   0  0  0  0  0  0  0  0  0  0  0  0
  1  2  2  0
  2  3  1  0
  3  4  2  0
  4  5  1  0
  5  6  1  0
  6  7  1  0
  7  8  1  0
  8  9  1  0
  9 10  1  0
 10 11  1  0
  4 12  1  0
 12 13  1  0
 13 14  1  0
 14 15  1  0
  5  1  1  0
 11  6  1  0
 15  3  1  0
M  END
>  <ref_pdb>  (748) 
A4877a

>  <subsites>  (748) 
1 - Active Site

>  <HIPPO Compound ID>  (748) 
24830

>  <energy_score>  (748) 
-34.164466

>  <fragmenstein_mode>  (748) 
expansion

>  <scratch_subdir>  (748) 
/opt/xchem-fragalysis-2/maxwin/BulkDock/SCRATCH/511189/C2059-P496

>  <smiles>  (748) 
c1nc2c(n1C1CCNCC1)CCCC2

>  <alias>  (748) 
C2059-P496

>  <ref_mols>  (748) 
A4877a,A3371a

>  <inspiration_score>  (748) 
None

>  <tags>  (748) 
BulkDock Fragalysis export,fragmenstein_placed,openbind_a71ev2a_c1_knitwork_impure,openbind_a71ev2a_c1_scaffolds

>  <fragmenstein_outcome>  (748) 
acceptable

>  <fragmenstein_error>  (748) 


>  <distance_score>  (748) 
0.780751

>  <inchikey>  (748) 
IJHPSABDUDUHER-UHFFFAOYSA-N

>  <name>  (748) 
C2059-P496

>  <HIPPO Pose ID>  (748) 
399046

>  <Energy>  (748) 
-0.802785

>  <exports>  (748) 
['/opt/xchem-fragalysis-2/maxwin/BulkDock/OUTPUTS/openbind_a71ev2a_c1_knitwork_impure_165VXJF.sdf', '/opt/xchem-fragalysis-2/maxwin/BulkDock/OUTPUTS/openbind_a71ev2a_c1_knitwork_impure_1B07QS4.sdf', '/opt/xchem-fragalysis-2/maxwin/BulkDock/OUTPUTS/openbind_a71ev2a_c1_knitwork_impure_1B07X5R.sdf', '/opt/xchem-fragalysis-2/maxwin/openbind-hippo/a71ev2a/openbind_a71ev2a_c1_scaffold_products.sdf', '/opt/xchem-fragalysis-2/maxwin/openbind-hippo/a71ev2a/cycle_01/bulkdock/openbind_a71ev2a_c1_scaffold_products.sdf', '/opt/xchem-fragalysis-2/maxwin/openbind-hippo/a71ev2a/cycle_01/bulkdock/openbind_a71ev2a_c1_scaffolds.sdf']

>  <fragmenstein_runtime>  (748) 
8.815953

$$$$
C16466-P174
     RDKit          3D

 15 15  0  0  0  0  0  0  0  0999 V2000
    3.9380    7.8989   31.8499 C   0  0  0  0  0  0  0  0  0  0  0  0
    4.6328    9.0806   31.1864 C   0  0  0  0  0  0  0  0  0  0  0  0
    4.5312    9.0585   29.6616 C   0  0  1  0  0  0  0  0  0  0  0  0
    2.7218    9.5754   29.0997 Br  0  0  0  0  0  0  0  0  0  0  0  0
    5.4903   10.0667   29.0007 C   0  0  0  0  0  0  0  0  0  0  0  0
    6.0919   10.8666   29.6038 O   0  0  0  0  0  0  0  0  0  0  0  0
    5.4463    9.7804   27.4737 N   0  0  0  0  0  0  0  0  0  0  0  0
    6.2035   10.3563   26.3920 C   0  0  0  0  0  0  0  0  0  0  0  0
    6.4687   11.8458   26.5425 C   0  0  0  0  0  0  0  0  0  0  0  0
    6.9782   12.5296   25.2743 C   0  0  0  0  0  0  0  0  0  0  0  0
    8.1252   11.8842   24.5743 C   0  0  0  0  0  0  0  0  0  0  0  0
    9.3742   12.4760   24.2863 C   0  0  0  0  0  0  0  0  0  0  0  0
   10.1850   11.6652   23.6111 N   0  0  0  0  0  0  0  0  0  0  0  0
    9.4527   10.5597   23.4116 N   0  0  0  0  0  0  0  0  0  0  0  0
    8.2131   10.6408   23.9783 C   0  0  0  0  0  0  0  0  0  0  0  0
  1  2  1  0
  2  3  1  0
  3  4  1  1
  3  5  1  0
  5  6  2  0
  5  7  1  0
  7  8  1  0
  8  9  1  0
  9 10  1  0
 10 11  1  0
 11 12  1  0
 12 13  2  0
 13 14  1  0
 14 15  1  0
 15 11  2  0
M  END
>  <ref_pdb>  (749) 
A3371a

>  <subsites>  (749) 
1 - Active Site

>  <HIPPO Compound ID>  (749) 
5962

>  <energy_score>  (749) 
-9.780954

>  <fragmenstein_mode>  (749) 
expansion

>  <scratch_subdir>  (749) 
/opt/xchem-fragalysis-2/maxwin/BulkDock/SCRATCH/511189/C16466-P174

>  <smiles>  (749) 
CC[C@@H](Br)C(=O)NCCCc1cn[nH]c1

>  <alias>  (749) 
C16466-P174

>  <ref_mols>  (749) 
A0556a,A3371a

>  <inspiration_score>  (749) 
None

>  <tags>  (749) 
BulkDock Fragalysis export,fragmenstein_placed,openbind_a71ev2a_c1_knitwork_impure,openbind_a71ev2a_c1_scaffolds

>  <fragmenstein_outcome>  (749) 
acceptable

>  <fragmenstein_error>  (749) 


>  <distance_score>  (749) 
0.869901

>  <inchikey>  (749) 
NVJZJVXTLOAEJS-UHFFFAOYSA-N

>  <name>  (749) 
C16466-P174

>  <HIPPO Pose ID>  (749) 
399208

>  <Energy>  (749) 
27.033745

>  <exports>  (749) 
['/opt/xchem-fragalysis-2/maxwin/BulkDock/OUTPUTS/openbind_a71ev2a_c1_knitwork_impure_165VXJF.sdf', '/opt/xchem-fragalysis-2/maxwin/BulkDock/OUTPUTS/openbind_a71ev2a_c1_knitwork_impure_1B07QS4.sdf', '/opt/xchem-fragalysis-2/maxwin/BulkDock/OUTPUTS/openbind_a71ev2a_c1_knitwork_impure_1B07X5R.sdf', '/opt/xchem-fragalysis-2/maxwin/openbind-hippo/a71ev2a/openbind_a71ev2a_c1_scaffold_products.sdf', '/opt/xchem-fragalysis-2/maxwin/openbind-hippo/a71ev2a/cycle_01/bulkdock/openbind_a71ev2a_c1_scaffold_products.sdf', '/opt/xchem-fragalysis-2/maxwin/openbind-hippo/a71ev2a/cycle_01/bulkdock/openbind_a71ev2a_c1_scaffolds.sdf']

>  <fragmenstein_runtime>  (749) 
2.274955

$$$$
C7135-P290
     RDKit          3D

 22 23  0  0  0  0  0  0  0  0999 V2000
    3.8078   12.1873   29.9811 C   0  0  0  0  0  0  0  0  0  0  0  0
    3.2719   11.0234   29.1434 C   0  0  2  0  0  0  0  0  0  0  0  0
    3.4840   11.3300   27.6412 C   0  0  0  0  0  0  0  0  0  0  0  0
    4.8957   10.9395   27.1954 C   0  0  0  0  0  0  0  0  0  0  0  0
    5.4525   10.0344   27.6806 O   0  0  0  0  0  0  0  0  0  0  0  0
    5.3141   11.8660   26.0148 N   0  0  0  0  0  0  0  0  0  0  0  0
    6.5040   11.9213   25.2824 C   0  0  0  0  0  0  0  0  0  0  0  0
    7.3080   10.7996   25.1519 C   0  0  0  0  0  0  0  0  0  0  0  0
    8.4577   10.9168   24.3912 C   0  0  0  0  0  0  0  0  0  0  0  0
    8.8638   12.0661   23.7982 N   0  0  0  0  0  0  0  0  0  0  0  0
    8.1041   13.1631   23.9580 C   0  0  0  0  0  0  0  0  0  0  0  0
    8.5418   14.4158   23.4974 N   0  0  0  0  0  0  0  0  0  0  0  0
    8.9844   14.4903   22.0871 C   0  0  0  0  0  0  0  0  0  0  0  0
   10.4844   14.1830   21.8691 C   0  0  0  0  0  0  0  0  0  0  0  0
   11.3811   14.9654   22.7490 N   0  0  0  0  0  0  0  0  0  0  0  0
   10.9798   14.6880   24.1383 C   0  0  0  0  0  0  0  0  0  0  0  0
    9.5026   15.0307   24.4387 C   0  0  0  0  0  0  0  0  0  0  0  0
    6.8965   13.1076   24.6667 C   0  0  0  0  0  0  0  0  0  0  0  0
    1.8071   10.7706   29.4601 C   0  0  0  0  0  0  0  0  0  0  0  0
    1.6120   10.6156   30.7898 F   0  0  0  0  0  0  0  0  0  0  0  0
    1.3439    9.6619   28.8522 F   0  0  0  0  0  0  0  0  0  0  0  0
    1.0365   11.8075   29.0572 F   0  0  0  0  0  0  0  0  0  0  0  0
  2  1  1  1
  2  3  1  0
  3  4  1  0
  4  5  2  0
  4  6  1  0
  6  7  1  0
  7  8  2  0
  8  9  1  0
  9 10  2  0
 10 11  1  0
 11 12  1  0
 12 13  1  0
 13 14  1  0
 14 15  1  0
 15 16  1  0
 16 17  1  0
 11 18  2  0
  2 19  1  0
 19 20  1  0
 19 21  1  0
 19 22  1  0
 18  7  1  0
 17 12  1  0
M  END
>  <ref_pdb>  (750) 
A4306a

>  <subsites>  (750) 
1 - Active Site

>  <HIPPO Compound ID>  (750) 
4100

>  <energy_score>  (750) 
-36.512283

>  <fragmenstein_mode>  (750) 
expansion

>  <scratch_subdir>  (750) 
/opt/xchem-fragalysis-2/maxwin/BulkDock/SCRATCH/511189/C7135-P290

>  <smiles>  (750) 
C[C@H](CC(=O)Nc1ccnc(N2CCNCC2)c1)C(F)(F)F

>  <alias>  (750) 
C7135-P290

>  <ref_mols>  (750) 
A1445a,A4306a

>  <inspiration_score>  (750) 
None

>  <tags>  (750) 
BulkDock Fragalysis export,fragmenstein_placed,openbind_a71ev2a_c1_knitwork_impure,openbind_a71ev2a_c1_scaffolds

>  <fragmenstein_outcome>  (750) 
acceptable

>  <fragmenstein_error>  (750) 


>  <distance_score>  (750) 
0.974742

>  <inchikey>  (750) 
AYBAPWWBZFMAJL-UHFFFAOYSA-N

>  <name>  (750) 
C7135-P290

>  <HIPPO Pose ID>  (750) 
399385

>  <Energy>  (750) 
46.129569

>  <exports>  (750) 
['/opt/xchem-fragalysis-2/maxwin/BulkDock/OUTPUTS/openbind_a71ev2a_c1_knitwork_impure_165VXJF.sdf', '/opt/xchem-fragalysis-2/maxwin/BulkDock/OUTPUTS/openbind_a71ev2a_c1_knitwork_impure_1B07QS4.sdf', '/opt/xchem-fragalysis-2/maxwin/BulkDock/OUTPUTS/openbind_a71ev2a_c1_knitwork_impure_1B07X5R.sdf', '/opt/xchem-fragalysis-2/maxwin/openbind-hippo/a71ev2a/openbind_a71ev2a_c1_scaffold_products.sdf', '/opt/xchem-fragalysis-2/maxwin/openbind-hippo/a71ev2a/cycle_01/bulkdock/openbind_a71ev2a_c1_scaffold_products.sdf', '/opt/xchem-fragalysis-2/maxwin/openbind-hippo/a71ev2a/cycle_01/bulkdock/openbind_a71ev2a_c1_scaffolds.sdf']

>  <fragmenstein_runtime>  (750) 
10.134505

$$$$
C2382-P465
     RDKit          3D

 15 15  0  0  0  0  0  0  0  0999 V2000
    7.7221   10.6301   25.4802 C   0  0  0  0  0  0  0  0  0  0  0  0
    8.8661   10.9234   24.5201 C   0  0  0  0  0  0  0  0  0  0  0  0
    9.8772    9.7862   24.5122 C   0  0  0  0  0  0  0  0  0  0  0  0
    9.5383   12.2590   24.8205 C   0  0  0  0  0  0  0  0  0  0  0  0
    8.5200   13.3784   24.9989 C   0  0  0  0  0  0  0  0  0  0  0  0
    7.9510   13.4790   26.0947 O   0  0  0  0  0  0  0  0  0  0  0  0
    8.1241   14.2832   23.7975 C   0  0  0  0  0  0  0  0  0  0  0  0
    7.0447   13.5206   23.0182 C   0  0  0  0  0  0  0  0  0  0  0  0
    7.4838   15.5679   24.3585 C   0  0  0  0  0  0  0  0  0  0  0  0
    9.3058   14.5419   22.9387 N   0  0  0  0  0  0  0  0  0  0  0  0
   10.4124   15.2330   23.6141 C   0  0  0  0  0  0  0  0  0  0  0  0
   11.6674   15.1055   22.7579 C   0  0  0  0  0  0  0  0  0  0  0  0
   11.4598   15.7644   21.4048 C   0  0  0  0  0  0  0  0  0  0  0  0
   10.2223   15.2022   20.7260 C   0  0  0  0  0  0  0  0  0  0  0  0
    9.0083   15.2201   21.6579 C   0  0  0  0  0  0  0  0  0  0  0  0
  1  2  1  0
  2  3  1  0
  2  4  1  0
  4  5  1  0
  5  6  2  0
  5  7  1  0
  7  8  1  0
  7  9  1  0
  7 10  1  0
 10 11  1  0
 11 12  1  0
 12 13  1  0
 13 14  1  0
 14 15  1  0
 15 10  1  0
M  END
>  <ref_pdb>  (751) 
A4786a

>  <subsites>  (751) 
1 - Active Site

>  <HIPPO Compound ID>  (751) 
10784

>  <energy_score>  (751) 
-56.855242

>  <fragmenstein_mode>  (751) 
expansion

>  <scratch_subdir>  (751) 
/opt/xchem-fragalysis-2/maxwin/BulkDock/SCRATCH/511189/C2382-P465

>  <smiles>  (751) 
CC(C)CC(=O)C(C)(C)N1CCCCC1

>  <alias>  (751) 
C2382-P465

>  <ref_mols>  (751) 
A4786a,A1775a

>  <inspiration_score>  (751) 
None

>  <tags>  (751) 
BulkDock Fragalysis export,fragmenstein_placed,openbind_a71ev2a_c1_knitwork_impure,openbind_a71ev2a_c1_scaffolds

>  <fragmenstein_outcome>  (751) 
acceptable

>  <fragmenstein_error>  (751) 


>  <distance_score>  (751) 
0.971525

>  <inchikey>  (751) 
WRGJLDZMMZTWSM-UHFFFAOYSA-N

>  <name>  (751) 
C2382-P465

>  <HIPPO Pose ID>  (751) 
399495

>  <Energy>  (751) 
52.378368

>  <exports>  (751) 
['/opt/xchem-fragalysis-2/maxwin/BulkDock/OUTPUTS/openbind_a71ev2a_c1_knitwork_impure_165VXJF.sdf', '/opt/xchem-fragalysis-2/maxwin/BulkDock/OUTPUTS/openbind_a71ev2a_c1_knitwork_impure_1B07QS4.sdf', '/opt/xchem-fragalysis-2/maxwin/BulkDock/OUTPUTS/openbind_a71ev2a_c1_knitwork_impure_1B07X5R.sdf', '/opt/xchem-fragalysis-2/maxwin/openbind-hippo/a71ev2a/openbind_a71ev2a_c1_scaffold_products.sdf', '/opt/xchem-fragalysis-2/maxwin/openbind-hippo/a71ev2a/cycle_01/bulkdock/openbind_a71ev2a_c1_scaffold_products.sdf', '/opt/xchem-fragalysis-2/maxwin/openbind-hippo/a71ev2a/cycle_01/bulkdock/openbind_a71ev2a_c1_scaffolds.sdf']

>  <fragmenstein_runtime>  (751) 
4.382277

$$$$
C18170-P495
     RDKit          3D

 12 12  0  0  0  0  0  0  0  0999 V2000
   10.7649   15.4145   20.8109 C   0  0  0  0  0  0  0  0  0  0  0  0
    9.4637   14.9349   21.4309 C   0  0  0  0  0  0  0  0  0  0  0  0
    9.6343   14.0646   22.6953 C   0  0  0  0  0  0  0  0  0  0  0  0
   10.1278   14.8884   23.8962 C   0  0  0  0  0  0  0  0  0  0  0  0
   11.6425   14.8572   24.0366 C   0  0  0  0  0  0  0  0  0  0  0  0
    8.3034   13.3699   23.0165 C   0  0  0  0  0  0  0  0  0  0  0  0
    7.2664   13.6665   22.4266 O   0  0  0  0  0  0  0  0  0  0  0  0
    8.2694   12.3018   23.9911 C   0  0  0  0  0  0  0  0  0  0  0  0
    7.3062   12.0932   24.9604 C   0  0  0  0  0  0  0  0  0  0  0  0
    7.5810   10.8282   25.4881 C   0  0  0  0  0  0  0  0  0  0  0  0
    8.6527   10.2744   24.9241 N   0  0  0  0  0  0  0  0  0  0  0  0
    9.0540   11.1793   24.0115 N   0  0  0  0  0  0  0  0  0  0  0  0
  1  2  1  0
  2  3  1  0
  3  4  1  0
  4  5  1  0
  3  6  1  0
  6  7  2  0
  6  8  1  0
  8  9  2  0
  9 10  1  0
 10 11  2  0
 11 12  1  0
 12  8  1  0
M  END
>  <ref_pdb>  (752) 
A4874b

>  <subsites>  (752) 
1 - Active Site

>  <HIPPO Compound ID>  (752) 
1509

>  <energy_score>  (752) 
-8.712156

>  <fragmenstein_mode>  (752) 
expansion

>  <scratch_subdir>  (752) 
/opt/xchem-fragalysis-2/maxwin/BulkDock/SCRATCH/511189/C18170-P495

>  <smiles>  (752) 
CCC(CC)C(=O)c1ccn[nH]1

>  <alias>  (752) 
C18170-P495

>  <ref_mols>  (752) 
A0556a,A4874b

>  <inspiration_score>  (752) 
None

>  <tags>  (752) 
BulkDock Fragalysis export,fragmenstein_placed,openbind_a71ev2a_c1_knitwork_impure,openbind_a71ev2a_c1_scaffolds

>  <fragmenstein_outcome>  (752) 
acceptable

>  <fragmenstein_error>  (752) 


>  <distance_score>  (752) 
0.896404

>  <inchikey>  (752) 
PYHYHSZBLFIGJJ-UHFFFAOYSA-N

>  <name>  (752) 
C18170-P495

>  <HIPPO Pose ID>  (752) 
399679

>  <Energy>  (752) 
19.724844

>  <exports>  (752) 
['/opt/xchem-fragalysis-2/maxwin/BulkDock/OUTPUTS/openbind_a71ev2a_c1_knitwork_impure_165VXJF.sdf', '/opt/xchem-fragalysis-2/maxwin/BulkDock/OUTPUTS/openbind_a71ev2a_c1_knitwork_impure_1B07QS4.sdf', '/opt/xchem-fragalysis-2/maxwin/BulkDock/OUTPUTS/openbind_a71ev2a_c1_knitwork_impure_1B07X5R.sdf', '/opt/xchem-fragalysis-2/maxwin/openbind-hippo/a71ev2a/openbind_a71ev2a_c1_scaffold_products.sdf', '/opt/xchem-fragalysis-2/maxwin/openbind-hippo/a71ev2a/cycle_01/bulkdock/openbind_a71ev2a_c1_scaffold_products.sdf', '/opt/xchem-fragalysis-2/maxwin/openbind-hippo/a71ev2a/cycle_01/bulkdock/openbind_a71ev2a_c1_scaffolds.sdf']

>  <fragmenstein_runtime>  (752) 
3.391125

$$$$
C18171-P495
     RDKit          3D

 15 15  0  0  0  0  0  0  0  0999 V2000
    9.8217   15.8261   23.9478 C   0  0  0  0  0  0  0  0  0  0  0  0
    9.6914   14.6861   22.9295 C   0  0  0  0  0  0  0  0  0  0  0  0
   10.8792   13.7415   23.1730 C   0  0  0  0  0  0  0  0  0  0  0  0
    8.3078   14.0114   23.0999 C   0  0  0  0  0  0  0  0  0  0  0  0
    8.0180   13.3167   24.4180 C   0  0  0  0  0  0  0  0  0  0  0  0
    7.5326   13.9205   25.3721 O   0  0  0  0  0  0  0  0  0  0  0  0
    8.2791   11.8965   24.5151 C   0  0  0  0  0  0  0  0  0  0  0  0
    7.7143   10.9941   25.4322 C   0  0  0  0  0  0  0  0  0  0  0  0
    8.1633    9.7530   25.2579 N   0  0  0  0  0  0  0  0  0  0  0  0
    9.0226    9.8492   24.2352 N   0  0  0  0  0  0  0  0  0  0  0  0
    9.1056   11.1118   23.7404 C   0  0  0  0  0  0  0  0  0  0  0  0
    9.7130   15.2496   21.4747 C   0  0  0  0  0  0  0  0  0  0  0  0
   11.0806   15.4463   20.8439 C   0  0  0  0  0  0  0  0  0  0  0  0
   11.8235   16.2825   21.6061 F   0  0  0  0  0  0  0  0  0  0  0  0
   10.9253   16.0310   19.6335 F   0  0  0  0  0  0  0  0  0  0  0  0
  1  2  1  0
  2  3  1  0
  2  4  1  0
  4  5  1  0
  5  6  2  0
  5  7  1  0
  7  8  1  0
  8  9  2  0
  9 10  1  0
 10 11  1  0
  2 12  1  0
 12 13  1  0
 13 14  1  0
 13 15  1  0
 11  7  2  0
M  END
>  <ref_pdb>  (753) 
A4874b

>  <subsites>  (753) 
1 - Active Site

>  <HIPPO Compound ID>  (753) 
5539

>  <energy_score>  (753) 
-22.006652

>  <fragmenstein_mode>  (753) 
expansion

>  <scratch_subdir>  (753) 
/opt/xchem-fragalysis-2/maxwin/BulkDock/SCRATCH/511189/C18171-P495

>  <smiles>  (753) 
CC(C)(CC(=O)c1cn[nH]c1)CC(F)F

>  <alias>  (753) 
C18171-P495

>  <ref_mols>  (753) 
A0556a,A4874b

>  <inspiration_score>  (753) 
None

>  <tags>  (753) 
BulkDock Fragalysis export,fragmenstein_placed,openbind_a71ev2a_c1_knitwork_impure,openbind_a71ev2a_c1_scaffolds

>  <fragmenstein_outcome>  (753) 
acceptable

>  <fragmenstein_error>  (753) 


>  <distance_score>  (753) 
0.771895

>  <inchikey>  (753) 
JCTAJWPEQHCFMI-UHFFFAOYSA-N

>  <name>  (753) 
C18171-P495

>  <HIPPO Pose ID>  (753) 
399680

>  <Energy>  (753) 
45.435293

>  <exports>  (753) 
['/opt/xchem-fragalysis-2/maxwin/BulkDock/OUTPUTS/openbind_a71ev2a_c1_knitwork_impure_165VXJF.sdf', '/opt/xchem-fragalysis-2/maxwin/BulkDock/OUTPUTS/openbind_a71ev2a_c1_knitwork_impure_1B07QS4.sdf', '/opt/xchem-fragalysis-2/maxwin/BulkDock/OUTPUTS/openbind_a71ev2a_c1_knitwork_impure_1B07X5R.sdf', '/opt/xchem-fragalysis-2/maxwin/openbind-hippo/a71ev2a/openbind_a71ev2a_c1_scaffold_products.sdf', '/opt/xchem-fragalysis-2/maxwin/openbind-hippo/a71ev2a/cycle_01/bulkdock/openbind_a71ev2a_c1_scaffold_products.sdf', '/opt/xchem-fragalysis-2/maxwin/openbind-hippo/a71ev2a/cycle_01/bulkdock/openbind_a71ev2a_c1_scaffolds.sdf']

>  <fragmenstein_runtime>  (753) 
2.596282

$$$$
C18173-P495
     RDKit          3D

 13 13  0  0  0  0  0  0  0  0999 V2000
   11.8129   16.0952   21.7535 C   0  0  0  0  0  0  0  0  0  0  0  0
   10.9095   15.1496   20.9696 C   0  0  0  0  0  0  0  0  0  0  0  0
   10.9035   15.5240   19.4872 C   0  0  0  0  0  0  0  0  0  0  0  0
    9.4728   15.1371   21.5141 C   0  0  0  0  0  0  0  0  0  0  0  0
    9.3823   14.6663   22.9693 C   0  0  0  0  0  0  0  0  0  0  0  0
    7.9753   14.1738   23.2831 C   0  0  0  0  0  0  0  0  0  0  0  0
    7.8843   13.3487   24.5517 C   0  0  0  0  0  0  0  0  0  0  0  0
    7.4131   13.8204   25.5850 O   0  0  0  0  0  0  0  0  0  0  0  0
    8.2896   11.9561   24.5086 C   0  0  0  0  0  0  0  0  0  0  0  0
    7.8054   10.9132   25.3211 C   0  0  0  0  0  0  0  0  0  0  0  0
    8.3382    9.7330   25.0063 N   0  0  0  0  0  0  0  0  0  0  0  0
    9.1754   10.0077   23.9945 N   0  0  0  0  0  0  0  0  0  0  0  0
    9.1983   11.3355   23.6768 C   0  0  0  0  0  0  0  0  0  0  0  0
  1  2  1  0
  2  3  1  0
  2  4  1  0
  4  5  1  0
  5  6  1  0
  6  7  1  0
  7  8  2  0
  7  9  1  0
  9 10  1  0
 10 11  2  0
 11 12  1  0
 12 13  1  0
 13  9  2  0
M  END
>  <ref_pdb>  (754) 
A4874b

>  <subsites>  (754) 
1 - Active Site

>  <HIPPO Compound ID>  (754) 
18173

>  <energy_score>  (754) 
-13.651676

>  <fragmenstein_mode>  (754) 
expansion

>  <scratch_subdir>  (754) 
/opt/xchem-fragalysis-2/maxwin/BulkDock/SCRATCH/511189/C18173-P495

>  <smiles>  (754) 
CC(C)CCCC(=O)c1cn[nH]c1

>  <alias>  (754) 
C18173-P495

>  <ref_mols>  (754) 
A0556a,A4874b

>  <inspiration_score>  (754) 
None

>  <tags>  (754) 
BulkDock Fragalysis export,fragmenstein_placed,openbind_a71ev2a_c1_knitwork_impure,openbind_a71ev2a_c1_scaffolds

>  <fragmenstein_outcome>  (754) 
acceptable

>  <fragmenstein_error>  (754) 


>  <distance_score>  (754) 
0.813354

>  <inchikey>  (754) 
AYEOHXFBHHOWPD-UHFFFAOYSA-N

>  <name>  (754) 
C18173-P495

>  <HIPPO Pose ID>  (754) 
399682

>  <Energy>  (754) 
26.440845

>  <exports>  (754) 
['/opt/xchem-fragalysis-2/maxwin/BulkDock/OUTPUTS/openbind_a71ev2a_c1_knitwork_impure_165VXJF.sdf', '/opt/xchem-fragalysis-2/maxwin/BulkDock/OUTPUTS/openbind_a71ev2a_c1_knitwork_impure_1B07QS4.sdf', '/opt/xchem-fragalysis-2/maxwin/BulkDock/OUTPUTS/openbind_a71ev2a_c1_knitwork_impure_1B07X5R.sdf', '/opt/xchem-fragalysis-2/maxwin/openbind-hippo/a71ev2a/openbind_a71ev2a_c1_scaffold_products.sdf', '/opt/xchem-fragalysis-2/maxwin/openbind-hippo/a71ev2a/cycle_01/bulkdock/openbind_a71ev2a_c1_scaffold_products.sdf', '/opt/xchem-fragalysis-2/maxwin/openbind-hippo/a71ev2a/cycle_01/bulkdock/openbind_a71ev2a_c1_scaffolds.sdf']

>  <fragmenstein_runtime>  (754) 
2.290088

$$$$
C3508-P489
     RDKit          3D

 24 26  0  0  0  0  0  0  0  0999 V2000
    4.4935   11.5628    0.5396 C   0  0  0  0  0  0  0  0  0  0  0  0
    3.9206   12.9892    0.6724 C   0  0  0  0  0  0  0  0  0  0  0  0
    3.0457   13.0398    1.9498 C   0  0  0  0  0  0  0  0  0  0  0  0
    3.0096   13.2288   -0.5472 C   0  0  0  0  0  0  0  0  0  0  0  0
    5.0992   14.0154    0.7030 C   0  0  1  0  0  0  0  0  0  0  0  0
    4.7060   15.5054    0.5448 C   0  0  0  0  0  0  0  0  0  0  0  0
    4.7388   15.9579   -0.8256 N   0  0  0  0  0  0  0  0  0  0  0  0
    3.6111   16.4967   -1.7307 C   0  0  0  0  0  0  0  0  0  0  0  0
    2.4933   16.7321   -1.4880 O   0  0  0  0  0  0  0  0  0  0  0  0
    4.2401   16.7353   -3.1520 C   0  0  0  0  0  0  0  0  0  0  0  0
    3.2789   17.1074   -4.3162 C   0  0  0  0  0  0  0  0  0  0  0  0
    3.2476   15.6154   -4.6922 C   0  0  0  0  0  0  0  0  0  0  0  0
    4.6068   15.4744   -3.9847 C   0  0  0  0  0  0  0  0  0  0  0  0
    5.8348   13.8389    1.9359 N   0  0  0  0  0  0  0  0  0  0  0  0
    7.2418   14.2861    2.3249 C   0  0  0  0  0  0  0  0  0  0  0  0
    8.0123   14.9352    1.7477 O   0  0  0  0  0  0  0  0  0  0  0  0
    7.4524   13.8229    3.6681 C   0  0  0  0  0  0  0  0  0  0  0  0
    7.4536   14.6020    4.8327 C   0  0  0  0  0  0  0  0  0  0  0  0
    7.4141   13.8500    5.9322 N   0  0  0  0  0  0  0  0  0  0  0  0
    7.4783   12.5378    5.4818 O   0  0  0  0  0  0  0  0  0  0  0  0
    7.4854   12.5232    4.1218 C   0  0  0  0  0  0  0  0  0  0  0  0
    7.3954   11.2307    3.2646 C   0  0  0  0  0  0  0  0  0  0  0  0
    8.2542   11.0931    2.0324 C   0  0  0  0  0  0  0  0  0  0  0  0
    8.5322   10.2492    3.2391 C   0  0  0  0  0  0  0  0  0  0  0  0
  1  2  1  0
  2  3  1  0
  2  4  1  0
  2  5  1  0
  5  6  1  1
  6  7  1  0
  7  8  1  0
  8  9  2  0
  8 10  1  0
 10 11  1  0
 11 12  1  0
 12 13  1  0
  5 14  1  0
 14 15  1  0
 15 16  2  0
 15 17  1  0
 17 18  1  0
 18 19  2  0
 19 20  1  0
 20 21  1  0
 21 22  1  0
 22 23  1  0
 23 24  1  0
 13 10  1  0
 21 17  2  0
 24 22  1  0
M  END
>  <ref_pdb>  (755) 
A4855a

>  <subsites>  (755) 
1 - Active Site,3 - A0541/A/147/1

>  <HIPPO Compound ID>  (755) 
8145

>  <energy_score>  (755) 
-70.809946

>  <fragmenstein_mode>  (755) 
expansion

>  <scratch_subdir>  (755) 
/opt/xchem-fragalysis-2/maxwin/BulkDock/SCRATCH/511189/C3508-P489

>  <smiles>  (755) 
CC(C)(C)[C@@H](CNC(=O)C1CCC1)NC(=O)c1cnoc1C1CC1

>  <alias>  (755) 
C3508-P489

>  <ref_mols>  (755) 
A0541a,A4855a

>  <inspiration_score>  (755) 
None

>  <tags>  (755) 
BulkDock Fragalysis export,fragmenstein_placed,openbind_a71ev2a_c1_knitwork_impure,openbind_a71ev2a_c1_scaffolds

>  <fragmenstein_outcome>  (755) 
acceptable

>  <fragmenstein_error>  (755) 


>  <distance_score>  (755) 
0.987547

>  <inchikey>  (755) 
IFQJCHDGIKNYJR-UHFFFAOYSA-N

>  <name>  (755) 
C3508-P489

>  <HIPPO Pose ID>  (755) 
399798

>  <Energy>  (755) 
39.323239

>  <exports>  (755) 
['/opt/xchem-fragalysis-2/maxwin/BulkDock/OUTPUTS/openbind_a71ev2a_c1_knitwork_impure_165VXJF.sdf', '/opt/xchem-fragalysis-2/maxwin/BulkDock/OUTPUTS/openbind_a71ev2a_c1_knitwork_impure_1B07QS4.sdf', '/opt/xchem-fragalysis-2/maxwin/BulkDock/OUTPUTS/openbind_a71ev2a_c1_knitwork_impure_1B07X5R.sdf', '/opt/xchem-fragalysis-2/maxwin/openbind-hippo/a71ev2a/openbind_a71ev2a_c1_scaffold_products.sdf', '/opt/xchem-fragalysis-2/maxwin/openbind-hippo/a71ev2a/cycle_01/bulkdock/openbind_a71ev2a_c1_scaffold_products.sdf', '/opt/xchem-fragalysis-2/maxwin/openbind-hippo/a71ev2a/cycle_01/bulkdock/openbind_a71ev2a_c1_scaffolds.sdf']

>  <fragmenstein_runtime>  (755) 
47.719337

$$$$
C7529-P323
     RDKit          3D

 13 13  0  0  0  0  0  0  0  0999 V2000
   10.6090   13.3796   25.1852 O   0  0  0  0  0  0  0  0  0  0  0  0
    9.6364   13.3553   24.5214 C   0  0  0  0  0  0  0  0  0  0  0  0
    9.0810   14.4070   23.4851 N   0  0  0  0  0  0  0  0  0  0  0  0
    9.5424   15.6731   23.1522 N   0  0  0  0  0  0  0  0  0  0  0  0
   10.9690   15.8719   23.4273 C   0  0  0  0  0  0  0  0  0  0  0  0
   11.8949   15.0943   22.4972 C   0  0  0  0  0  0  0  0  0  0  0  0
   11.5998   15.4194   21.0397 C   0  0  0  0  0  0  0  0  0  0  0  0
   10.1158   15.2492   20.7410 C   0  0  0  0  0  0  0  0  0  0  0  0
    9.2491   16.0138   21.7434 C   0  0  0  0  0  0  0  0  0  0  0  0
    8.6703   12.1283   24.5645 C   0  0  0  0  0  0  0  0  0  0  0  0
    9.2497   11.0137   24.0378 F   0  0  0  0  0  0  0  0  0  0  0  0
    8.3224   11.8050   25.8431 F   0  0  0  0  0  0  0  0  0  0  0  0
    7.1715   12.4124   23.7038 Cl  0  0  0  0  0  0  0  0  0  0  0  0
  1  2  2  0
  2  3  1  0
  3  4  1  0
  4  5  1  0
  5  6  1  0
  6  7  1  0
  7  8  1  0
  8  9  1  0
  2 10  1  0
 10 11  1  0
 10 12  1  0
 10 13  1  0
  9  4  1  0
M  END
>  <ref_pdb>  (756) 
A4365a

>  <subsites>  (756) 
1 - Active Site

>  <HIPPO Compound ID>  (756) 
42149

>  <energy_score>  (756) 
-0.043458

>  <fragmenstein_mode>  (756) 
expansion

>  <scratch_subdir>  (756) 
/opt/xchem-fragalysis-2/maxwin/BulkDock/SCRATCH/511189/C7529-P323

>  <smiles>  (756) 
O=C(NN1CCCCC1)C(F)(F)Cl

>  <alias>  (756) 
C7529-P323

>  <ref_mols>  (756) 
A1445a,A4365a

>  <inspiration_score>  (756) 
None

>  <tags>  (756) 
BulkDock Fragalysis export,fragmenstein_placed,openbind_a71ev2a_c1_knitwork_impure,openbind_a71ev2a_c1_scaffolds

>  <fragmenstein_outcome>  (756) 
acceptable

>  <fragmenstein_error>  (756) 


>  <distance_score>  (756) 
0.944547

>  <inchikey>  (756) 
TZTAWMMMGCPPTP-UHFFFAOYSA-N

>  <name>  (756) 
C7529-P323

>  <HIPPO Pose ID>  (756) 
400289

>  <Energy>  (756) 
135.306051

>  <exports>  (756) 
['/opt/xchem-fragalysis-2/maxwin/BulkDock/OUTPUTS/openbind_a71ev2a_c1_knitwork_impure_165VXJF.sdf', '/opt/xchem-fragalysis-2/maxwin/BulkDock/OUTPUTS/openbind_a71ev2a_c1_knitwork_impure_1B07QS4.sdf', '/opt/xchem-fragalysis-2/maxwin/BulkDock/OUTPUTS/openbind_a71ev2a_c1_knitwork_impure_1B07X5R.sdf', '/opt/xchem-fragalysis-2/maxwin/openbind-hippo/a71ev2a/openbind_a71ev2a_c1_scaffold_products.sdf', '/opt/xchem-fragalysis-2/maxwin/openbind-hippo/a71ev2a/cycle_01/bulkdock/openbind_a71ev2a_c1_scaffold_products.sdf', '/opt/xchem-fragalysis-2/maxwin/openbind-hippo/a71ev2a/cycle_01/bulkdock/openbind_a71ev2a_c1_scaffolds.sdf']

>  <fragmenstein_runtime>  (756) 
1.793962

$$$$
C41823-P124
     RDKit          3D

 16 18  0  0  0  0  0  0  0  0999 V2000
   10.2350    8.4155   23.0431 Br  0  0  0  0  0  0  0  0  0  0  0  0
   10.1160   10.1154   23.7806 C   0  0  0  0  0  0  0  0  0  0  0  0
   11.1831   10.9859   23.6035 C   0  0  0  0  0  0  0  0  0  0  0  0
   11.1524   12.2243   24.2132 C   0  0  0  0  0  0  0  0  0  0  0  0
    9.9946   12.6084   24.8552 C   0  0  0  0  0  0  0  0  0  0  0  0
    8.9366   11.7239   25.0632 C   0  0  0  0  0  0  0  0  0  0  0  0
    9.0015   10.4567   24.5367 C   0  0  0  0  0  0  0  0  0  0  0  0
    7.9557   12.2615   25.9007 N   0  0  0  0  0  0  0  0  0  0  0  0
    6.5775   11.8144   25.7826 C   0  0  0  0  0  0  0  0  0  0  0  0
    5.5564   12.5941   26.5619 C   0  0  0  0  0  0  0  0  0  0  0  0
    5.2592   12.4879   27.8434 N   0  0  0  0  0  0  0  0  0  0  0  0
    4.2844   13.4228   28.0784 C   0  0  0  0  0  0  0  0  0  0  0  0
    3.9773   14.1059   26.9275 C   0  0  0  0  0  0  0  0  0  0  0  0
    4.7828   13.5649   25.9652 N   0  0  0  0  0  0  0  0  0  0  0  0
    8.2115   13.7006   25.8528 C   0  0  0  0  0  0  0  0  0  0  0  0
    9.6734   13.9273   25.4590 C   0  0  0  0  0  0  0  0  0  0  0  0
  1  2  1  0
  2  3  2  0
  3  4  1  0
  4  5  2  0
  5  6  1  0
  6  7  2  0
  6  8  1  0
  8  9  1  0
  9 10  1  0
 10 11  2  0
 11 12  1  0
 12 13  2  0
 13 14  1  0
  8 15  1  0
 15 16  1  0
  7  2  1  0
 14 10  1  0
 16  5  1  0
M  END
>  <ref_pdb>  (757) 
A1778a

>  <subsites>  (757) 
1 - Active Site

>  <HIPPO Compound ID>  (757) 
31998

>  <energy_score>  (757) 
-17.165443

>  <fragmenstein_mode>  (757) 
expansion

>  <scratch_subdir>  (757) 
/opt/xchem-fragalysis-2/maxwin/BulkDock/SCRATCH/511189/C41823-P124

>  <smiles>  (757) 
Brc1ccc2c(c1)N(Cc1ncc[nH]1)CC2

>  <alias>  (757) 
C41823-P124

>  <ref_mols>  (757) 
A2972a,A1778a

>  <inspiration_score>  (757) 
None

>  <tags>  (757) 
BulkDock Fragalysis export,fragmenstein_placed,openbind_a71ev2a_c1_knitwork_impure,openbind_a71ev2a_c1_scaffolds

>  <fragmenstein_outcome>  (757) 
acceptable

>  <fragmenstein_error>  (757) 


>  <distance_score>  (757) 
0.906124

>  <inchikey>  (757) 
TZIRKKPJSKSKFV-UHFFFAOYSA-N

>  <name>  (757) 
C41823-P124

>  <HIPPO Pose ID>  (757) 
400324

>  <Energy>  (757) 
44.166633

>  <exports>  (757) 
['/opt/xchem-fragalysis-2/maxwin/BulkDock/OUTPUTS/openbind_a71ev2a_c1_knitwork_impure_165VXJF.sdf', '/opt/xchem-fragalysis-2/maxwin/BulkDock/OUTPUTS/openbind_a71ev2a_c1_knitwork_impure_1B07QS4.sdf', '/opt/xchem-fragalysis-2/maxwin/BulkDock/OUTPUTS/openbind_a71ev2a_c1_knitwork_impure_1B07X5R.sdf', '/opt/xchem-fragalysis-2/maxwin/openbind-hippo/a71ev2a/openbind_a71ev2a_c1_scaffold_products.sdf', '/opt/xchem-fragalysis-2/maxwin/openbind-hippo/a71ev2a/cycle_01/bulkdock/openbind_a71ev2a_c1_scaffold_products.sdf', '/opt/xchem-fragalysis-2/maxwin/openbind-hippo/a71ev2a/cycle_01/bulkdock/openbind_a71ev2a_c1_scaffolds.sdf']

>  <fragmenstein_runtime>  (757) 
0.907054

$$$$
C41834-P137
     RDKit          3D

 18 20  0  0  0  0  0  0  0  0999 V2000
    6.4278   13.2691   27.5489 O   0  0  0  0  0  0  0  0  0  0  0  0
    6.6834   12.5927   26.2912 S   0  0  0  0  0  0  0  0  0  0  0  0
    6.0848   11.2931   26.0647 O   0  0  0  0  0  0  0  0  0  0  0  0
    6.0219   13.7365   25.1000 C   0  0  0  0  0  0  0  0  0  0  0  0
    6.6945   14.3957   24.1638 N   0  0  0  0  0  0  0  0  0  0  0  0
    5.7829   15.2452   23.5864 C   0  0  0  0  0  0  0  0  0  0  0  0
    4.5501   15.1099   24.1790 C   0  0  0  0  0  0  0  0  0  0  0  0
    4.7158   14.1505   25.1363 N   0  0  0  0  0  0  0  0  0  0  0  0
    8.3690   12.5186   26.0925 N   0  0  0  0  0  0  0  0  0  0  0  0
    9.0634   13.8493   25.9644 C   0  0  0  0  0  0  0  0  0  0  0  0
    9.8453   13.8149   24.6419 C   0  0  0  0  0  0  0  0  0  0  0  0
    9.7524   12.3845   24.2434 C   0  0  0  0  0  0  0  0  0  0  0  0
   10.3684   11.7687   23.1760 C   0  0  0  0  0  0  0  0  0  0  0  0
   10.0895   10.4190   22.9574 C   0  0  0  0  0  0  0  0  0  0  0  0
    9.2585    9.7071   23.8133 C   0  0  0  0  0  0  0  0  0  0  0  0
    9.0627    8.4029   23.5908 F   0  0  0  0  0  0  0  0  0  0  0  0
    8.6220   10.3347   24.8693 C   0  0  0  0  0  0  0  0  0  0  0  0
    8.8612   11.6852   25.0477 C   0  0  0  0  0  0  0  0  0  0  0  0
  1  2  2  0
  2  3  2  0
  2  4  1  0
  4  5  2  0
  5  6  1  0
  6  7  2  0
  7  8  1  0
  2  9  1  0
  9 10  1  0
 10 11  1  0
 11 12  1  0
 12 13  2  0
 13 14  1  0
 14 15  2  0
 15 16  1  0
 15 17  1  0
 17 18  2  0
  8  4  1  0
 18  9  1  0
 18 12  1  0
M  END
>  <ref_pdb>  (758) 
A2972a

>  <subsites>  (758) 
1 - Active Site

>  <HIPPO Compound ID>  (758) 
7655

>  <energy_score>  (758) 
-36.787592

>  <fragmenstein_mode>  (758) 
expansion

>  <scratch_subdir>  (758) 
/opt/xchem-fragalysis-2/maxwin/BulkDock/SCRATCH/511189/C41834-P137

>  <smiles>  (758) 
O=S(=O)(c1ncc[nH]1)N1CCc2ccc(F)cc21

>  <alias>  (758) 
C41834-P137

>  <ref_mols>  (758) 
A2972a,A1778a

>  <inspiration_score>  (758) 
None

>  <tags>  (758) 
BulkDock Fragalysis export,fragmenstein_placed,openbind_a71ev2a_c1_knitwork_impure,openbind_a71ev2a_c1_scaffolds

>  <fragmenstein_outcome>  (758) 
acceptable

>  <fragmenstein_error>  (758) 


>  <distance_score>  (758) 
0.9626

>  <inchikey>  (758) 
OLNCYPXEOMYYNS-UHFFFAOYSA-N

>  <name>  (758) 
C41834-P137

>  <HIPPO Pose ID>  (758) 
400343

>  <Energy>  (758) 
31.896576

>  <exports>  (758) 
['/opt/xchem-fragalysis-2/maxwin/BulkDock/OUTPUTS/openbind_a71ev2a_c1_knitwork_impure_165VXJF.sdf', '/opt/xchem-fragalysis-2/maxwin/BulkDock/OUTPUTS/openbind_a71ev2a_c1_knitwork_impure_1B07QS4.sdf', '/opt/xchem-fragalysis-2/maxwin/BulkDock/OUTPUTS/openbind_a71ev2a_c1_knitwork_impure_1B07X5R.sdf', '/opt/xchem-fragalysis-2/maxwin/openbind-hippo/a71ev2a/openbind_a71ev2a_c1_scaffold_products.sdf', '/opt/xchem-fragalysis-2/maxwin/openbind-hippo/a71ev2a/cycle_01/bulkdock/openbind_a71ev2a_c1_scaffold_products.sdf', '/opt/xchem-fragalysis-2/maxwin/openbind-hippo/a71ev2a/cycle_01/bulkdock/openbind_a71ev2a_c1_scaffolds.sdf']

>  <fragmenstein_runtime>  (758) 
1.601242

$$$$
C8138-P440
     RDKit          3D

 15 15  0  0  0  0  0  0  0  0999 V2000
   11.4405   15.5753   21.6351 C   0  0  0  0  0  0  0  0  0  0  0  0
   11.3769   14.3851   22.5763 C   0  0  0  0  0  0  0  0  0  0  0  0
   10.2178   14.3845   23.5886 C   0  0  1  0  0  0  0  0  0  0  0  0
   10.5294   15.2754   24.7843 C   0  0  0  0  0  0  0  0  0  0  0  0
    8.8352   14.7110   22.9949 C   0  0  0  0  0  0  0  0  0  0  0  0
    7.8794   13.5308   22.9459 C   0  0  0  0  0  0  0  0  0  0  0  0
    7.2612   13.2578   21.9115 O   0  0  0  0  0  0  0  0  0  0  0  0
    7.6624   12.7005   24.2154 C   0  0  2  0  0  0  0  0  0  0  0  0
    8.2268   13.2471   25.3954 O   0  0  0  0  0  0  0  0  0  0  0  0
    8.1021   11.2597   23.9419 C   0  0  0  0  0  0  0  0  0  0  0  0
    8.0192   10.3620   25.1783 C   0  0  0  0  0  0  0  0  0  0  0  0
    8.9602    9.1729   25.0516 C   0  0  0  0  0  0  0  0  0  0  0  0
    9.0505    8.6845   23.6958 N   0  0  0  0  0  0  0  0  0  0  0  0
    9.6295    9.6420   22.7867 C   0  0  0  0  0  0  0  0  0  0  0  0
    9.4730   11.0777   23.2695 C   0  0  0  0  0  0  0  0  0  0  0  0
  1  2  1  0
  2  3  1  0
  3  4  1  1
  3  5  1  0
  5  6  1  0
  6  7  2  0
  6  8  1  0
  8  9  1  1
  8 10  1  0
 10 11  1  0
 11 12  1  0
 12 13  1  0
 13 14  1  0
 14 15  1  0
 15 10  1  0
M  END
>  <ref_pdb>  (759) 
A4707a

>  <subsites>  (759) 
1 - Active Site

>  <HIPPO Compound ID>  (759) 
13648

>  <energy_score>  (759) 
-14.188579

>  <fragmenstein_mode>  (759) 
expansion

>  <scratch_subdir>  (759) 
/opt/xchem-fragalysis-2/maxwin/BulkDock/SCRATCH/512027/C8138-P440

>  <smiles>  (759) 
CC[C@@H](C)CC(=O)[C@H](O)C1CCNCC1

>  <alias>  (759) 
C8138-P440

>  <ref_mols>  (759) 
A4707a,A0719a

>  <inspiration_score>  (759) 
None

>  <tags>  (759) 
BulkDock Fragalysis export,fragmenstein_placed,openbind_a71ev2a_c1_knitwork_impure,openbind_a71ev2a_c1_scaffolds

>  <fragmenstein_outcome>  (759) 
acceptable

>  <fragmenstein_error>  (759) 


>  <distance_score>  (759) 
0.867191

>  <inchikey>  (759) 
AJANJNXHNMDIHZ-UHFFFAOYSA-N

>  <name>  (759) 
C8138-P440

>  <HIPPO Pose ID>  (759) 
401138

>  <Energy>  (759) 
50.747398

>  <exports>  (759) 
['/opt/xchem-fragalysis-2/maxwin/BulkDock/OUTPUTS/openbind_a71ev2a_c1_knitwork_impure_165VXJF.sdf', '/opt/xchem-fragalysis-2/maxwin/BulkDock/OUTPUTS/openbind_a71ev2a_c1_knitwork_impure_1B07QS4.sdf', '/opt/xchem-fragalysis-2/maxwin/BulkDock/OUTPUTS/openbind_a71ev2a_c1_knitwork_impure_1B07X5R.sdf', '/opt/xchem-fragalysis-2/maxwin/openbind-hippo/a71ev2a/openbind_a71ev2a_c1_scaffold_products.sdf', '/opt/xchem-fragalysis-2/maxwin/openbind-hippo/a71ev2a/cycle_01/bulkdock/openbind_a71ev2a_c1_scaffold_products.sdf', '/opt/xchem-fragalysis-2/maxwin/openbind-hippo/a71ev2a/cycle_01/bulkdock/openbind_a71ev2a_c1_scaffolds.sdf']

>  <fragmenstein_runtime>  (759) 
3.521215

$$$$
C8155-P440
     RDKit          3D

 16 16  0  0  0  0  0  0  0  0999 V2000
    9.4405    8.6821   22.5703 C   0  0  0  0  0  0  0  0  0  0  0  0
    8.8276    9.2267   23.7903 C   0  0  0  0  0  0  0  0  0  0  0  0
    9.5528    9.9170   24.6654 C   0  0  0  0  0  0  0  0  0  0  0  0
    8.9963   10.4737   25.8477 C   0  0  0  0  0  0  0  0  0  0  0  0
    7.9509   11.3004   25.9606 C   0  0  0  0  0  0  0  0  0  0  0  0
    7.1609   11.9082   24.8655 C   0  0  0  0  0  0  0  0  0  0  0  0
    7.8470   13.1633   24.5173 N   0  0  0  0  0  0  0  0  0  0  0  0
    8.5368   13.1044   22.9877 S   0  0  0  0  0  0  0  0  0  0  0  0
    7.4139   13.0330   22.0796 O   0  0  0  0  0  0  0  0  0  0  0  0
    9.6140   12.1541   22.9741 O   0  0  0  0  0  0  0  0  0  0  0  0
    9.1702   14.6591   22.9815 N   0  0  0  0  0  0  0  0  0  0  0  0
   10.4592   14.8435   23.6833 C   0  0  0  0  0  0  0  0  0  0  0  0
   11.6503   14.5221   22.7859 C   0  0  0  0  0  0  0  0  0  0  0  0
   11.5802   15.2569   21.4525 C   0  0  0  0  0  0  0  0  0  0  0  0
   10.2413   15.0168   20.7701 C   0  0  0  0  0  0  0  0  0  0  0  0
    9.0985   15.3912   21.6970 C   0  0  0  0  0  0  0  0  0  0  0  0
  1  2  1  0
  2  3  2  3
  3  4  1  0
  4  5  2  3
  5  6  1  0
  6  7  1  0
  7  8  1  0
  8  9  2  0
  8 10  2  0
  8 11  1  0
 11 12  1  0
 12 13  1  0
 13 14  1  0
 14 15  1  0
 15 16  1  0
 16 11  1  0
M  END
>  <ref_pdb>  (760) 
A4707a

>  <subsites>  (760) 
1 - Active Site

>  <HIPPO Compound ID>  (760) 
40316

>  <energy_score>  (760) 
-33.455497

>  <fragmenstein_mode>  (760) 
expansion

>  <scratch_subdir>  (760) 
/opt/xchem-fragalysis-2/maxwin/BulkDock/SCRATCH/512027/C8155-P440

>  <smiles>  (760) 
CC=CC=CCNS(=O)(=O)N1CCCCC1

>  <alias>  (760) 
C8155-P440

>  <ref_mols>  (760) 
A4707a,A0719a

>  <inspiration_score>  (760) 
None

>  <tags>  (760) 
BulkDock Fragalysis export,fragmenstein_placed,openbind_a71ev2a_c1_knitwork_impure,openbind_a71ev2a_c1_scaffolds

>  <fragmenstein_outcome>  (760) 
acceptable

>  <fragmenstein_error>  (760) 


>  <distance_score>  (760) 
0.973354

>  <inchikey>  (760) 
JLLXGDVGXITSBH-UHFFFAOYSA-N

>  <name>  (760) 
C8155-P440

>  <HIPPO Pose ID>  (760) 
401149

>  <Energy>  (760) 
-185.331841

>  <exports>  (760) 
['/opt/xchem-fragalysis-2/maxwin/BulkDock/OUTPUTS/openbind_a71ev2a_c1_knitwork_impure_165VXJF.sdf', '/opt/xchem-fragalysis-2/maxwin/BulkDock/OUTPUTS/openbind_a71ev2a_c1_knitwork_impure_1B07QS4.sdf', '/opt/xchem-fragalysis-2/maxwin/BulkDock/OUTPUTS/openbind_a71ev2a_c1_knitwork_impure_1B07X5R.sdf', '/opt/xchem-fragalysis-2/maxwin/openbind-hippo/a71ev2a/openbind_a71ev2a_c1_scaffold_products.sdf', '/opt/xchem-fragalysis-2/maxwin/openbind-hippo/a71ev2a/cycle_01/bulkdock/openbind_a71ev2a_c1_scaffold_products.sdf', '/opt/xchem-fragalysis-2/maxwin/openbind-hippo/a71ev2a/cycle_01/bulkdock/openbind_a71ev2a_c1_scaffolds.sdf']

>  <fragmenstein_runtime>  (760) 
6.901862

$$$$
C8172-P440
     RDKit          3D

 15 15  0  0  0  0  0  0  0  0999 V2000
   10.7372   10.0377   25.4089 C   0  0  0  0  0  0  0  0  0  0  0  0
    9.6479   10.5353   25.3727 C   0  0  0  0  0  0  0  0  0  0  0  0
    8.3412   11.0974   25.0258 C   0  0  0  0  0  0  0  0  0  0  0  0
    7.8073   10.2108   23.9236 C   0  0  0  0  0  0  0  0  0  0  0  0
    7.3710   11.0503   26.2071 C   0  0  0  0  0  0  0  0  0  0  0  0
    8.5034   12.5327   24.6645 N   0  0  0  0  0  0  0  0  0  0  0  0
    8.8188   12.8524   23.0565 S   0  0  0  0  0  0  0  0  0  0  0  0
    7.5703   12.7419   22.3411 O   0  0  0  0  0  0  0  0  0  0  0  0
    9.9784   12.0639   22.7379 O   0  0  0  0  0  0  0  0  0  0  0  0
    9.2510   14.4735   23.1507 N   0  0  0  0  0  0  0  0  0  0  0  0
   10.5912   14.7946   23.6914 C   0  0  0  0  0  0  0  0  0  0  0  0
   11.6949   14.6460   22.6519 C   0  0  0  0  0  0  0  0  0  0  0  0
   11.3866   15.4087   21.3724 C   0  0  0  0  0  0  0  0  0  0  0  0
   10.0028   15.0550   20.8457 C   0  0  0  0  0  0  0  0  0  0  0  0
    8.9477   15.2681   21.9234 C   0  0  0  0  0  0  0  0  0  0  0  0
  1  2  3  0
  2  3  1  0
  3  4  1  0
  3  5  1  0
  3  6  1  0
  6  7  1  0
  7  8  2  0
  7  9  2  0
  7 10  1  0
 10 11  1  0
 11 12  1  0
 12 13  1  0
 13 14  1  0
 14 15  1  0
 15 10  1  0
M  END
>  <ref_pdb>  (761) 
A4707a

>  <subsites>  (761) 
1 - Active Site

>  <HIPPO Compound ID>  (761) 
5407

>  <energy_score>  (761) 
-32.806908

>  <fragmenstein_mode>  (761) 
expansion

>  <scratch_subdir>  (761) 
/opt/xchem-fragalysis-2/maxwin/BulkDock/SCRATCH/512027/C8172-P440

>  <smiles>  (761) 
C#CC(C)(C)NS(=O)(=O)N1CCCCC1

>  <alias>  (761) 
C8172-P440

>  <ref_mols>  (761) 
A4707a,A0719a

>  <inspiration_score>  (761) 
None

>  <tags>  (761) 
BulkDock Fragalysis export,fragmenstein_placed,openbind_a71ev2a_c1_knitwork_impure,openbind_a71ev2a_c1_scaffolds

>  <fragmenstein_outcome>  (761) 
acceptable

>  <fragmenstein_error>  (761) 


>  <distance_score>  (761) 
0.886574

>  <inchikey>  (761) 
DVLVUUCTVLQLBO-UHFFFAOYSA-N

>  <name>  (761) 
C8172-P440

>  <HIPPO Pose ID>  (761) 
401160

>  <Energy>  (761) 
-182.109076

>  <exports>  (761) 
['/opt/xchem-fragalysis-2/maxwin/BulkDock/OUTPUTS/openbind_a71ev2a_c1_knitwork_impure_165VXJF.sdf', '/opt/xchem-fragalysis-2/maxwin/BulkDock/OUTPUTS/openbind_a71ev2a_c1_knitwork_impure_1B07QS4.sdf', '/opt/xchem-fragalysis-2/maxwin/BulkDock/OUTPUTS/openbind_a71ev2a_c1_knitwork_impure_1B07X5R.sdf', '/opt/xchem-fragalysis-2/maxwin/openbind-hippo/a71ev2a/openbind_a71ev2a_c1_scaffold_products.sdf', '/opt/xchem-fragalysis-2/maxwin/openbind-hippo/a71ev2a/cycle_01/bulkdock/openbind_a71ev2a_c1_scaffold_products.sdf', '/opt/xchem-fragalysis-2/maxwin/openbind-hippo/a71ev2a/cycle_01/bulkdock/openbind_a71ev2a_c1_scaffolds.sdf']

>  <fragmenstein_runtime>  (761) 
6.513981

$$$$
C1791-P217
     RDKit          3D

 15 17  0  0  0  0  0  0  0  0999 V2000
    7.5817   10.2633   25.3367 C   0  0  0  0  0  0  0  0  0  0  0  0
    8.4973    9.6635   24.2420 C   0  0  0  0  0  0  0  0  0  0  0  0
    9.4986   10.6104   23.5807 C   0  0  0  0  0  0  0  0  0  0  0  0
    9.0272   11.9904   23.6717 C   0  0  0  0  0  0  0  0  0  0  0  0
    9.7022   13.0094   23.0997 O   0  0  0  0  0  0  0  0  0  0  0  0
    8.9516   14.1079   23.4255 C   0  0  0  0  0  0  0  0  0  0  0  0
    9.4940   15.4480   23.0614 C   0  0  0  0  0  0  0  0  0  0  0  0
   10.9151   15.6383   23.6038 C   0  0  0  0  0  0  0  0  0  0  0  0
   11.9892   15.0674   22.6875 C   0  0  0  0  0  0  0  0  0  0  0  0
   11.8428   15.5641   21.3273 N   0  0  0  0  0  0  0  0  0  0  0  0
   10.5553   15.1752   20.7621 C   0  0  0  0  0  0  0  0  0  0  0  0
    9.3933   15.7500   21.5641 C   0  0  0  0  0  0  0  0  0  0  0  0
    7.8654   13.8392   24.1302 N   0  0  0  0  0  0  0  0  0  0  0  0
    7.9453   12.4955   24.3305 C   0  0  0  0  0  0  0  0  0  0  0  0
    7.0289   11.6837   25.1366 C   0  0  0  0  0  0  0  0  0  0  0  0
  1  2  1  0
  2  3  1  0
  3  4  1  0
  4  5  1  0
  5  6  1  0
  6  7  1  0
  7  8  1  0
  8  9  1  0
  9 10  1  0
 10 11  1  0
 11 12  1  0
  6 13  2  0
 13 14  1  0
 14 15  1  0
 15  1  1  0
 14  4  2  0
 12  7  1  0
M  END
>  <ref_pdb>  (762) 
A3557a

>  <subsites>  (762) 
1 - Active Site

>  <HIPPO Compound ID>  (762) 
1807

>  <energy_score>  (762) 
-43.343955

>  <fragmenstein_mode>  (762) 
expansion

>  <scratch_subdir>  (762) 
/opt/xchem-fragalysis-2/maxwin/BulkDock/SCRATCH/512027/C1791-P217

>  <smiles>  (762) 
C1CCc2oc(C3CCNCC3)nc2C1

>  <alias>  (762) 
C1791-P217

>  <ref_mols>  (762) 
A3623a,A3557a

>  <inspiration_score>  (762) 
None

>  <tags>  (762) 
BulkDock Fragalysis export,fragmenstein_placed,openbind_a71ev2a_c1_knitwork_impure,openbind_a71ev2a_c1_scaffolds

>  <fragmenstein_outcome>  (762) 
acceptable

>  <fragmenstein_error>  (762) 


>  <distance_score>  (762) 
0.942496

>  <inchikey>  (762) 
ZGJPKOODEIMJSO-UHFFFAOYSA-N

>  <name>  (762) 
C1791-P217

>  <HIPPO Pose ID>  (762) 
402049

>  <Energy>  (762) 
6.215866

>  <exports>  (762) 
['/opt/xchem-fragalysis-2/maxwin/BulkDock/OUTPUTS/openbind_a71ev2a_c1_knitwork_impure_165VXJF.sdf', '/opt/xchem-fragalysis-2/maxwin/BulkDock/OUTPUTS/openbind_a71ev2a_c1_knitwork_impure_1B07QS4.sdf', '/opt/xchem-fragalysis-2/maxwin/BulkDock/OUTPUTS/openbind_a71ev2a_c1_knitwork_impure_1B07X5R.sdf', '/opt/xchem-fragalysis-2/maxwin/openbind-hippo/a71ev2a/openbind_a71ev2a_c1_scaffold_products.sdf', '/opt/xchem-fragalysis-2/maxwin/openbind-hippo/a71ev2a/cycle_01/bulkdock/openbind_a71ev2a_c1_scaffold_products.sdf', '/opt/xchem-fragalysis-2/maxwin/openbind-hippo/a71ev2a/cycle_01/bulkdock/openbind_a71ev2a_c1_scaffolds.sdf']

>  <fragmenstein_runtime>  (762) 
9.32436

$$$$
C8131-P618
     RDKit          3D

 13 13  0  0  0  0  0  0  0  0999 V2000
   11.8199   15.2162   23.3476 C   0  0  0  0  0  0  0  0  0  0  0  0
   10.6680   15.3590   23.0442 C   0  0  0  0  0  0  0  0  0  0  0  0
    9.2663   15.5257   22.6460 C   0  0  0  0  0  0  0  0  0  0  0  0
    8.4526   14.2849   22.9015 C   0  0  0  0  0  0  0  0  0  0  0  0
    7.6685   13.8330   22.0563 O   0  0  0  0  0  0  0  0  0  0  0  0
    8.5222   13.6720   24.2994 C   0  0  1  0  0  0  0  0  0  0  0  0
    7.3665   14.1291   24.9979 O   0  0  0  0  0  0  0  0  0  0  0  0
    8.5522   12.1500   24.1589 C   0  0  0  0  0  0  0  0  0  0  0  0
    7.8087   11.4398   25.2679 C   0  0  0  0  0  0  0  0  0  0  0  0
    8.0591    9.9518   25.2834 C   0  0  0  0  0  0  0  0  0  0  0  0
    8.8003    9.3497   24.2063 N   0  0  0  0  0  0  0  0  0  0  0  0
    9.9482   10.0840   23.7190 C   0  0  0  0  0  0  0  0  0  0  0  0
    9.9574   11.5979   23.9635 C   0  0  0  0  0  0  0  0  0  0  0  0
  1  2  3  0
  2  3  1  0
  3  4  1  0
  4  5  2  0
  4  6  1  0
  6  7  1  1
  6  8  1  0
  8  9  1  0
  9 10  1  0
 10 11  1  0
 11 12  1  0
 12 13  1  0
 13  8  1  0
M  END
>  <ref_pdb>  (763) 
A5425b

>  <subsites>  (763) 
1 - Active Site

>  <HIPPO Compound ID>  (763) 
11248

>  <energy_score>  (763) 
-19.729482

>  <fragmenstein_mode>  (763) 
expansion

>  <scratch_subdir>  (763) 
/opt/xchem-fragalysis-2/maxwin/BulkDock/SCRATCH/512027/C8131-P618

>  <smiles>  (763) 
C#CCC(=O)[C@@H](O)C1CCNCC1

>  <alias>  (763) 
C8131-P618

>  <ref_mols>  (763) 
A5425b,A0719a

>  <inspiration_score>  (763) 
None

>  <tags>  (763) 
BulkDock Fragalysis export,fragmenstein_placed,openbind_a71ev2a_c1_knitwork_impure,openbind_a71ev2a_c1_scaffolds

>  <fragmenstein_outcome>  (763) 
acceptable

>  <fragmenstein_error>  (763) 


>  <distance_score>  (763) 
0.977152

>  <inchikey>  (763) 
WZIGSCUCYLFSGJ-UHFFFAOYSA-N

>  <name>  (763) 
C8131-P618

>  <HIPPO Pose ID>  (763) 
402069

>  <Energy>  (763) 
52.724354

>  <exports>  (763) 
['/opt/xchem-fragalysis-2/maxwin/BulkDock/OUTPUTS/openbind_a71ev2a_c1_knitwork_impure_165VXJF.sdf', '/opt/xchem-fragalysis-2/maxwin/BulkDock/OUTPUTS/openbind_a71ev2a_c1_knitwork_impure_1B07QS4.sdf', '/opt/xchem-fragalysis-2/maxwin/BulkDock/OUTPUTS/openbind_a71ev2a_c1_knitwork_impure_1B07X5R.sdf', '/opt/xchem-fragalysis-2/maxwin/openbind-hippo/a71ev2a/openbind_a71ev2a_c1_scaffold_products.sdf', '/opt/xchem-fragalysis-2/maxwin/openbind-hippo/a71ev2a/cycle_01/bulkdock/openbind_a71ev2a_c1_scaffold_products.sdf', '/opt/xchem-fragalysis-2/maxwin/openbind-hippo/a71ev2a/cycle_01/bulkdock/openbind_a71ev2a_c1_scaffolds.sdf']

>  <fragmenstein_runtime>  (763) 
1.638121

$$$$
C8160-P618
     RDKit          3D

 14 14  0  0  0  0  0  0  0  0999 V2000
    9.0047    9.5661   24.5184 C   0  0  0  0  0  0  0  0  0  0  0  0
    8.6432   10.8957   25.1613 C   0  0  0  0  0  0  0  0  0  0  0  0
    7.2694   10.8501   25.8102 C   0  0  0  0  0  0  0  0  0  0  0  0
    8.8872   12.0036   24.1478 C   0  0  0  0  0  0  0  0  0  0  0  0
    8.2381   13.2596   24.5445 N   0  0  0  0  0  0  0  0  0  0  0  0
    7.8591   14.2747   23.2583 S   0  0  0  0  0  0  0  0  0  0  0  0
    7.1591   13.4575   22.2929 O   0  0  0  0  0  0  0  0  0  0  0  0
    7.2656   15.4470   23.8471 O   0  0  0  0  0  0  0  0  0  0  0  0
    9.3890   14.6277   22.6739 N   0  0  0  0  0  0  0  0  0  0  0  0
   10.3246   15.2604   23.6300 C   0  0  0  0  0  0  0  0  0  0  0  0
   11.7315   15.1625   23.0509 C   0  0  0  0  0  0  0  0  0  0  0  0
   11.8113   15.9027   21.7202 C   0  0  0  0  0  0  0  0  0  0  0  0
   10.7599   15.3690   20.7535 C   0  0  0  0  0  0  0  0  0  0  0  0
    9.3687   15.3758   21.3807 C   0  0  0  0  0  0  0  0  0  0  0  0
  1  2  1  0
  2  3  1  0
  2  4  1  0
  4  5  1  0
  5  6  1  0
  6  7  2  0
  6  8  2  0
  6  9  1  0
  9 10  1  0
 10 11  1  0
 11 12  1  0
 12 13  1  0
 13 14  1  0
 14  9  1  0
M  END
>  <ref_pdb>  (764) 
A5425b

>  <subsites>  (764) 
1 - Active Site

>  <HIPPO Compound ID>  (764) 
40319

>  <energy_score>  (764) 
-48.936194

>  <fragmenstein_mode>  (764) 
expansion

>  <scratch_subdir>  (764) 
/opt/xchem-fragalysis-2/maxwin/BulkDock/SCRATCH/512027/C8160-P618

>  <smiles>  (764) 
CC(C)CNS(=O)(=O)N1CCCCC1

>  <alias>  (764) 
C8160-P618

>  <ref_mols>  (764) 
A5425b,A0719a

>  <inspiration_score>  (764) 
None

>  <tags>  (764) 
BulkDock Fragalysis export,fragmenstein_placed,openbind_a71ev2a_c1_knitwork_impure,openbind_a71ev2a_c1_scaffolds

>  <fragmenstein_outcome>  (764) 
acceptable

>  <fragmenstein_error>  (764) 


>  <distance_score>  (764) 
0.738076

>  <inchikey>  (764) 
WFPMJUJXZODHSD-UHFFFAOYSA-N

>  <name>  (764) 
C8160-P618

>  <HIPPO Pose ID>  (764) 
402089

>  <Energy>  (764) 
-178.788886

>  <exports>  (764) 
['/opt/xchem-fragalysis-2/maxwin/BulkDock/OUTPUTS/openbind_a71ev2a_c1_knitwork_impure_165VXJF.sdf', '/opt/xchem-fragalysis-2/maxwin/BulkDock/OUTPUTS/openbind_a71ev2a_c1_knitwork_impure_1B07QS4.sdf', '/opt/xchem-fragalysis-2/maxwin/BulkDock/OUTPUTS/openbind_a71ev2a_c1_knitwork_impure_1B07X5R.sdf', '/opt/xchem-fragalysis-2/maxwin/openbind-hippo/a71ev2a/openbind_a71ev2a_c1_scaffold_products.sdf', '/opt/xchem-fragalysis-2/maxwin/openbind-hippo/a71ev2a/cycle_01/bulkdock/openbind_a71ev2a_c1_scaffold_products.sdf', '/opt/xchem-fragalysis-2/maxwin/openbind-hippo/a71ev2a/cycle_01/bulkdock/openbind_a71ev2a_c1_scaffolds.sdf']

>  <fragmenstein_runtime>  (764) 
1.925172

$$$$
C8169-P618
     RDKit          3D

 14 14  0  0  0  0  0  0  0  0999 V2000
    7.1856   13.3321   22.3602 O   0  0  0  0  0  0  0  0  0  0  0  0
    7.8678   14.1867   23.3059 S   0  0  0  0  0  0  0  0  0  0  0  0
    7.2410   15.3455   23.8871 O   0  0  0  0  0  0  0  0  0  0  0  0
    8.3032   13.2028   24.5954 N   0  0  0  0  0  0  0  0  0  0  0  0
    9.0195   11.9707   24.2239 C   0  0  0  0  0  0  0  0  0  0  0  0
    8.4304   10.8142   25.0008 C   0  0  0  0  0  0  0  0  0  0  0  0
    8.7483    9.4699   24.3961 C   0  0  0  0  0  0  0  0  0  0  0  0
   10.4168    9.2004   23.9481 Cl  0  0  0  0  0  0  0  0  0  0  0  0
    9.3775   14.5873   22.6996 N   0  0  0  0  0  0  0  0  0  0  0  0
   10.3099   15.2492   23.6382 C   0  0  0  0  0  0  0  0  0  0  0  0
   11.7114   15.1704   23.0432 C   0  0  0  0  0  0  0  0  0  0  0  0
   11.7631   15.9005   21.7055 C   0  0  0  0  0  0  0  0  0  0  0  0
   10.7052   15.3465   20.7565 C   0  0  0  0  0  0  0  0  0  0  0  0
    9.3224   15.3277   21.4036 C   0  0  0  0  0  0  0  0  0  0  0  0
  1  2  2  0
  2  3  2  0
  2  4  1  0
  4  5  1  0
  5  6  1  0
  6  7  1  0
  7  8  1  0
  2  9  1  0
  9 10  1  0
 10 11  1  0
 11 12  1  0
 12 13  1  0
 13 14  1  0
 14  9  1  0
M  END
>  <ref_pdb>  (765) 
A5425b

>  <subsites>  (765) 
1 - Active Site

>  <HIPPO Compound ID>  (765) 
3470

>  <energy_score>  (765) 
-70.190543

>  <fragmenstein_mode>  (765) 
expansion

>  <scratch_subdir>  (765) 
/opt/xchem-fragalysis-2/maxwin/BulkDock/SCRATCH/512027/C8169-P618

>  <smiles>  (765) 
O=S(=O)(NCCCCl)N1CCCCC1

>  <alias>  (765) 
C8169-P618

>  <ref_mols>  (765) 
A5425b,A0719a

>  <inspiration_score>  (765) 
None

>  <tags>  (765) 
BulkDock Fragalysis export,fragmenstein_placed,openbind_a71ev2a_c1_knitwork_impure,openbind_a71ev2a_c1_scaffolds

>  <fragmenstein_outcome>  (765) 
acceptable

>  <fragmenstein_error>  (765) 


>  <distance_score>  (765) 
0.601772

>  <inchikey>  (765) 
FXGFNCCXOGIGTL-UHFFFAOYSA-N

>  <name>  (765) 
C8169-P618

>  <HIPPO Pose ID>  (765) 
402093

>  <Energy>  (765) 
-185.949672

>  <exports>  (765) 
['/opt/xchem-fragalysis-2/maxwin/BulkDock/OUTPUTS/openbind_a71ev2a_c1_knitwork_impure_165VXJF.sdf', '/opt/xchem-fragalysis-2/maxwin/BulkDock/OUTPUTS/openbind_a71ev2a_c1_knitwork_impure_1B07QS4.sdf', '/opt/xchem-fragalysis-2/maxwin/BulkDock/OUTPUTS/openbind_a71ev2a_c1_knitwork_impure_1B07X5R.sdf', '/opt/xchem-fragalysis-2/maxwin/openbind-hippo/a71ev2a/openbind_a71ev2a_c1_scaffold_products.sdf', '/opt/xchem-fragalysis-2/maxwin/openbind-hippo/a71ev2a/cycle_01/bulkdock/openbind_a71ev2a_c1_scaffold_products.sdf', '/opt/xchem-fragalysis-2/maxwin/openbind-hippo/a71ev2a/cycle_01/bulkdock/openbind_a71ev2a_c1_scaffolds.sdf']

>  <fragmenstein_runtime>  (765) 
1.609389

$$$$
C8178-P618
     RDKit          3D

 21 21  0  0  0  0  0  0  0  0999 V2000
    3.1139   14.6093   20.4974 C   0  0  0  0  0  0  0  0  0  0  0  0
    3.6611   13.4407   21.2874 C   0  0  0  0  0  0  0  0  0  0  0  0
    5.0768   13.6039   21.4651 O   0  0  0  0  0  0  0  0  0  0  0  0
    5.4737   14.1080   22.6632 C   0  0  0  0  0  0  0  0  0  0  0  0
    4.7638   14.5070   23.4851 O   0  0  0  0  0  0  0  0  0  0  0  0
    6.9780   13.9193   22.6695 N   0  0  0  0  0  0  0  0  0  0  0  0
    7.9784   14.2756   23.6782 C   0  0  0  0  0  0  0  0  0  0  0  0
    9.2168   14.4978   22.8180 N   0  0  0  0  0  0  0  0  0  0  0  0
   10.4542   14.6750   23.6012 C   0  0  0  0  0  0  0  0  0  0  0  0
   11.6956   14.7410   22.7108 C   0  0  0  0  0  0  0  0  0  0  0  0
   11.5813   15.8171   21.6444 C   0  0  0  0  0  0  0  0  0  0  0  0
   10.2638   15.6736   20.8988 C   0  0  0  0  0  0  0  0  0  0  0  0
    9.0840   15.6312   21.8743 C   0  0  0  0  0  0  0  0  0  0  0  0
    8.1382   13.1066   24.7151 C   0  0  0  0  0  0  0  0  0  0  0  0
    8.5749   11.9658   24.1123 F   0  0  0  0  0  0  0  0  0  0  0  0
    6.9926   12.7848   25.3488 F   0  0  0  0  0  0  0  0  0  0  0  0
    9.0411   13.3824   25.6894 F   0  0  0  0  0  0  0  0  0  0  0  0
    7.5193   15.4316   24.6134 C   0  0  0  0  0  0  0  0  0  0  0  0
    7.2413   16.5656   23.9307 F   0  0  0  0  0  0  0  0  0  0  0  0
    8.5063   15.7420   25.4923 F   0  0  0  0  0  0  0  0  0  0  0  0
    6.4404   15.1437   25.3688 F   0  0  0  0  0  0  0  0  0  0  0  0
  1  2  1  0
  2  3  1  0
  3  4  1  0
  4  5  2  0
  4  6  1  0
  6  7  1  0
  7  8  1  0
  8  9  1  0
  9 10  1  0
 10 11  1  0
 11 12  1  0
 12 13  1  0
  7 14  1  0
 14 15  1  0
 14 16  1  0
 14 17  1  0
  7 18  1  0
 18 19  1  0
 18 20  1  0
 18 21  1  0
 13  8  1  0
M  END
>  <ref_pdb>  (766) 
A5425b

>  <subsites>  (766) 
1 - Active Site

>  <HIPPO Compound ID>  (766) 
4684

>  <energy_score>  (766) 
-33.598688

>  <fragmenstein_mode>  (766) 
expansion

>  <scratch_subdir>  (766) 
/opt/xchem-fragalysis-2/maxwin/BulkDock/SCRATCH/512027/C8178-P618

>  <smiles>  (766) 
CCOC(=O)NC(N1CCCCC1)(C(F)(F)F)C(F)(F)F

>  <alias>  (766) 
C8178-P618

>  <ref_mols>  (766) 
A5425b,A0719a

>  <inspiration_score>  (766) 
None

>  <tags>  (766) 
BulkDock Fragalysis export,fragmenstein_placed,openbind_a71ev2a_c1_knitwork_impure,openbind_a71ev2a_c1_scaffolds

>  <fragmenstein_outcome>  (766) 
acceptable

>  <fragmenstein_error>  (766) 


>  <distance_score>  (766) 
0.883602

>  <inchikey>  (766) 
UIVUJIQVOXNKGD-UHFFFAOYSA-N

>  <name>  (766) 
C8178-P618

>  <HIPPO Pose ID>  (766) 
402101

>  <Energy>  (766) 
52.283924

>  <exports>  (766) 
['/opt/xchem-fragalysis-2/maxwin/BulkDock/OUTPUTS/openbind_a71ev2a_c1_knitwork_impure_165VXJF.sdf', '/opt/xchem-fragalysis-2/maxwin/BulkDock/OUTPUTS/openbind_a71ev2a_c1_knitwork_impure_1B07QS4.sdf', '/opt/xchem-fragalysis-2/maxwin/BulkDock/OUTPUTS/openbind_a71ev2a_c1_knitwork_impure_1B07X5R.sdf', '/opt/xchem-fragalysis-2/maxwin/openbind-hippo/a71ev2a/openbind_a71ev2a_c1_scaffold_products.sdf', '/opt/xchem-fragalysis-2/maxwin/openbind-hippo/a71ev2a/cycle_01/bulkdock/openbind_a71ev2a_c1_scaffold_products.sdf', '/opt/xchem-fragalysis-2/maxwin/openbind-hippo/a71ev2a/cycle_01/bulkdock/openbind_a71ev2a_c1_scaffolds.sdf']

>  <fragmenstein_runtime>  (766) 
6.048746

$$$$
C723-P344
     RDKit          3D

 14 16  0  0  0  0  0  0  0  0999 V2000
    8.0107   11.7191   25.0538 C   0  0  0  0  0  0  0  0  0  0  0  0
    8.3510   12.9959   24.6316 C   0  0  0  0  0  0  0  0  0  0  0  0
    9.2341   13.1511   23.5658 C   0  0  0  0  0  0  0  0  0  0  0  0
    9.5711   14.4184   23.1178 N   0  0  0  0  0  0  0  0  0  0  0  0
   10.5178   15.1558   23.9393 C   0  0  0  0  0  0  0  0  0  0  0  0
   11.8689   15.1805   23.2484 C   0  0  0  0  0  0  0  0  0  0  0  0
   11.7330   15.9461   21.9446 C   0  0  0  0  0  0  0  0  0  0  0  0
   10.7232   15.2902   21.0325 C   0  0  0  0  0  0  0  0  0  0  0  0
   10.4755   15.9762   19.6983 C   0  0  0  0  0  0  0  0  0  0  0  0
   11.2545   14.7181   19.7198 C   0  0  0  0  0  0  0  0  0  0  0  0
    9.4503   14.7676   21.6941 C   0  0  0  0  0  0  0  0  0  0  0  0
    9.7601   11.9953   23.0087 C   0  0  0  0  0  0  0  0  0  0  0  0
    9.3716   10.7540   23.4944 C   0  0  0  0  0  0  0  0  0  0  0  0
    8.5077   10.5901   24.5149 N   0  0  0  0  0  0  0  0  0  0  0  0
  1  2  2  0
  2  3  1  0
  3  4  1  0
  4  5  1  0
  5  6  1  0
  6  7  1  0
  7  8  1  0
  8  9  1  0
  9 10  1  0
  8 11  1  0
  3 12  2  0
 12 13  1  0
 13 14  2  0
 14  1  1  0
 11  4  1  0
 10  8  1  0
M  END
>  <ref_pdb>  (767) 
A4274b

>  <subsites>  (767) 
1 - Active Site

>  <HIPPO Compound ID>  (767) 
12356

>  <energy_score>  (767) 
-10.798953

>  <fragmenstein_mode>  (767) 
expansion

>  <scratch_subdir>  (767) 
/opt/xchem-fragalysis-2/maxwin/BulkDock/SCRATCH/512027/C723-P344

>  <smiles>  (767) 
c1cc(N2CCCC3(CC3)C2)ccn1

>  <alias>  (767) 
C723-P344

>  <ref_mols>  (767) 
A4274b,A1140a

>  <inspiration_score>  (767) 
None

>  <tags>  (767) 
BulkDock Fragalysis export,fragmenstein_placed,openbind_a71ev2a_c1_knitwork_impure,openbind_a71ev2a_c1_scaffolds

>  <fragmenstein_outcome>  (767) 
acceptable

>  <fragmenstein_error>  (767) 


>  <distance_score>  (767) 
0.891587

>  <inchikey>  (767) 
RZWWAVWMGNUJKM-UHFFFAOYSA-N

>  <name>  (767) 
C723-P344

>  <HIPPO Pose ID>  (767) 
402172

>  <Energy>  (767) 
37.842907

>  <exports>  (767) 
['/opt/xchem-fragalysis-2/maxwin/BulkDock/OUTPUTS/openbind_a71ev2a_c1_knitwork_impure_165VXJF.sdf', '/opt/xchem-fragalysis-2/maxwin/BulkDock/OUTPUTS/openbind_a71ev2a_c1_knitwork_impure_1B07QS4.sdf', '/opt/xchem-fragalysis-2/maxwin/BulkDock/OUTPUTS/openbind_a71ev2a_c1_knitwork_impure_1B07X5R.sdf', '/opt/xchem-fragalysis-2/maxwin/openbind-hippo/a71ev2a/openbind_a71ev2a_c1_scaffold_products.sdf', '/opt/xchem-fragalysis-2/maxwin/openbind-hippo/a71ev2a/cycle_01/bulkdock/openbind_a71ev2a_c1_scaffold_products.sdf', '/opt/xchem-fragalysis-2/maxwin/openbind-hippo/a71ev2a/cycle_01/bulkdock/openbind_a71ev2a_c1_scaffolds.sdf']

>  <fragmenstein_runtime>  (767) 
6.409605

$$$$
C24186-P168
     RDKit          3D

 11 12  0  0  0  0  0  0  0  0999 V2000
    3.6763   12.6833   28.5034 C   0  0  0  0  0  0  0  0  0  0  0  0
    3.4308   13.7172   27.6299 C   0  0  0  0  0  0  0  0  0  0  0  0
    4.7041   13.8221   26.4966 S   0  0  0  0  0  0  0  0  0  0  0  0
    5.4800   12.4729   27.2352 C   0  0  0  0  0  0  0  0  0  0  0  0
    6.7806   11.8872   26.7193 C   0  0  0  0  0  0  0  0  0  0  0  0
    7.5158   12.7635   25.6908 C   0  0  0  0  0  0  0  0  0  0  0  0
    8.7576   12.1017   25.1120 C   0  0  0  0  0  0  0  0  0  0  0  0
    8.4396   10.7414   24.5289 C   0  0  0  0  0  0  0  0  0  0  0  0
    7.7108    9.8381   25.5027 C   0  0  0  0  0  0  0  0  0  0  0  0
    6.5272   10.4598   26.2203 C   0  0  0  0  0  0  0  0  0  0  0  0
    4.8419   11.9793   28.2811 N   0  0  0  0  0  0  0  0  0  0  0  0
  1  2  2  0
  2  3  1  0
  3  4  1  0
  4  5  1  0
  5  6  1  0
  6  7  1  0
  7  8  1  0
  8  9  1  0
  9 10  1  0
  4 11  2  0
 11  1  1  0
 10  5  1  0
M  END
>  <ref_pdb>  (768) 
A3306a

>  <subsites>  (768) 
1 - Active Site

>  <HIPPO Compound ID>  (768) 
30433

>  <energy_score>  (768) 
-37.366794

>  <fragmenstein_mode>  (768) 
expansion

>  <scratch_subdir>  (768) 
/opt/xchem-fragalysis-2/maxwin/BulkDock/SCRATCH/512027/C24186-P168

>  <smiles>  (768) 
c1csc(C2CCCCC2)n1

>  <alias>  (768) 
C24186-P168

>  <ref_mols>  (768) 
A3306a,A4320a

>  <inspiration_score>  (768) 
None

>  <tags>  (768) 
BulkDock Fragalysis export,fragmenstein_placed,openbind_a71ev2a_c1_knitwork_impure,openbind_a71ev2a_c1_scaffolds

>  <fragmenstein_outcome>  (768) 
acceptable

>  <fragmenstein_error>  (768) 


>  <distance_score>  (768) 
0.939303

>  <inchikey>  (768) 
ICXYMBBPUHNCID-UHFFFAOYSA-N

>  <name>  (768) 
C24186-P168

>  <HIPPO Pose ID>  (768) 
402359

>  <Energy>  (768) 
13.463296

>  <exports>  (768) 
['/opt/xchem-fragalysis-2/maxwin/BulkDock/OUTPUTS/openbind_a71ev2a_c1_knitwork_impure_165VXJF.sdf', '/opt/xchem-fragalysis-2/maxwin/BulkDock/OUTPUTS/openbind_a71ev2a_c1_knitwork_impure_1B07QS4.sdf', '/opt/xchem-fragalysis-2/maxwin/BulkDock/OUTPUTS/openbind_a71ev2a_c1_knitwork_impure_1B07X5R.sdf', '/opt/xchem-fragalysis-2/maxwin/openbind-hippo/a71ev2a/openbind_a71ev2a_c1_scaffold_products.sdf', '/opt/xchem-fragalysis-2/maxwin/openbind-hippo/a71ev2a/cycle_01/bulkdock/openbind_a71ev2a_c1_scaffold_products.sdf', '/opt/xchem-fragalysis-2/maxwin/openbind-hippo/a71ev2a/cycle_01/bulkdock/openbind_a71ev2a_c1_scaffolds.sdf']

>  <fragmenstein_runtime>  (768) 
4.35421

$$$$
C2382-P185
     RDKit          3D

 15 15  0  0  0  0  0  0  0  0999 V2000
    6.4188   10.8822   26.0347 C   0  0  0  0  0  0  0  0  0  0  0  0
    7.0761   11.8159   25.0258 C   0  0  0  0  0  0  0  0  0  0  0  0
    8.5004   11.4205   24.7007 C   0  0  0  0  0  0  0  0  0  0  0  0
    6.8924   13.2667   25.4563 C   0  0  0  0  0  0  0  0  0  0  0  0
    7.9031   14.2554   24.9066 C   0  0  0  0  0  0  0  0  0  0  0  0
    8.7071   14.7463   25.7166 O   0  0  0  0  0  0  0  0  0  0  0  0
    7.8050   14.7551   23.4301 C   0  0  0  0  0  0  0  0  0  0  0  0
    6.9717   13.8524   22.5294 C   0  0  0  0  0  0  0  0  0  0  0  0
    7.0071   16.0681   23.5521 C   0  0  0  0  0  0  0  0  0  0  0  0
    9.1265   14.7632   22.7304 N   0  0  0  0  0  0  0  0  0  0  0  0
   10.3539   14.7751   23.5214 C   0  0  0  0  0  0  0  0  0  0  0  0
   11.6029   14.5096   22.6782 C   0  0  0  0  0  0  0  0  0  0  0  0
   11.6943   15.4428   21.4851 C   0  0  0  0  0  0  0  0  0  0  0  0
   10.4105   15.3608   20.6809 C   0  0  0  0  0  0  0  0  0  0  0  0
    9.2027   15.6570   21.5644 C   0  0  0  0  0  0  0  0  0  0  0  0
  1  2  1  0
  2  3  1  0
  2  4  1  0
  4  5  1  0
  5  6  2  0
  5  7  1  0
  7  8  1  0
  7  9  1  0
  7 10  1  0
 10 11  1  0
 11 12  1  0
 12 13  1  0
 13 14  1  0
 14 15  1  0
 15 10  1  0
M  END
>  <ref_pdb>  (769) 
A3480a

>  <subsites>  (769) 
1 - Active Site

>  <HIPPO Compound ID>  (769) 
43016

>  <energy_score>  (769) 
-43.538261

>  <fragmenstein_mode>  (769) 
expansion

>  <scratch_subdir>  (769) 
/opt/xchem-fragalysis-2/maxwin/BulkDock/SCRATCH/512027/C2382-P185

>  <smiles>  (769) 
CC(C)CC(=O)C(C)(C)N1CCCCC1

>  <alias>  (769) 
C2382-P185

>  <ref_mols>  (769) 
A3480a,A1775a

>  <inspiration_score>  (769) 
None

>  <tags>  (769) 
BulkDock Fragalysis export,fragmenstein_placed,openbind_a71ev2a_c1_knitwork_impure,openbind_a71ev2a_c1_scaffolds

>  <fragmenstein_outcome>  (769) 
acceptable

>  <fragmenstein_error>  (769) 


>  <distance_score>  (769) 
0.852581

>  <inchikey>  (769) 
CYHXIECXBFJELE-UHFFFAOYSA-N

>  <name>  (769) 
C2382-P185

>  <HIPPO Pose ID>  (769) 
402644

>  <Energy>  (769) 
65.695349

>  <exports>  (769) 
['/opt/xchem-fragalysis-2/maxwin/BulkDock/OUTPUTS/openbind_a71ev2a_c1_knitwork_impure_165VXJF.sdf', '/opt/xchem-fragalysis-2/maxwin/BulkDock/OUTPUTS/openbind_a71ev2a_c1_knitwork_impure_1B07QS4.sdf', '/opt/xchem-fragalysis-2/maxwin/BulkDock/OUTPUTS/openbind_a71ev2a_c1_knitwork_impure_1B07X5R.sdf', '/opt/xchem-fragalysis-2/maxwin/openbind-hippo/a71ev2a/openbind_a71ev2a_c1_scaffold_products.sdf', '/opt/xchem-fragalysis-2/maxwin/openbind-hippo/a71ev2a/cycle_01/bulkdock/openbind_a71ev2a_c1_scaffold_products.sdf', '/opt/xchem-fragalysis-2/maxwin/openbind-hippo/a71ev2a/cycle_01/bulkdock/openbind_a71ev2a_c1_scaffolds.sdf']

>  <fragmenstein_runtime>  (769) 
51.730214

$$$$
C7182-P317
     RDKit          3D

 22 23  0  0  0  0  0  0  0  0999 V2000
    9.4925   10.0220   23.5801 C   0  0  0  0  0  0  0  0  0  0  0  0
    8.5355   10.6054   24.5481 C   0  0  0  0  0  0  0  0  0  0  0  0
    7.5888    9.9659   25.3126 C   0  0  0  0  0  0  0  0  0  0  0  0
    6.9775   10.9565   26.0918 C   0  0  0  0  0  0  0  0  0  0  0  0
    5.9078   10.7142   26.8968 N   0  0  0  0  0  0  0  0  0  0  0  0
    5.3005   11.5614   28.0502 C   0  0  0  0  0  0  0  0  0  0  0  0
    5.6719   12.5566   28.5339 O   0  0  0  0  0  0  0  0  0  0  0  0
    3.9772   10.8755   28.4073 C   0  0  0  0  0  0  0  0  0  0  0  0
    3.3438   11.2038   29.7660 C   0  0  1  0  0  0  0  0  0  0  0  0
    3.2316   12.7010   30.0517 C   0  0  0  0  0  0  0  0  0  0  0  0
    1.9446   10.5956   29.8143 C   0  0  0  0  0  0  0  0  0  0  0  0
    1.3860   10.7353   31.0348 F   0  0  0  0  0  0  0  0  0  0  0  0
    1.9682    9.2741   29.5303 F   0  0  0  0  0  0  0  0  0  0  0  0
    1.1228   11.1772   28.9111 F   0  0  0  0  0  0  0  0  0  0  0  0
    7.5541   12.1392   25.8977 N   0  0  0  0  0  0  0  0  0  0  0  0
    8.3886   11.9379   24.8507 N   0  0  0  0  0  0  0  0  0  0  0  0
    8.9923   13.0783   24.1672 C   0  0  0  0  0  0  0  0  0  0  0  0
   10.1661   13.6640   24.9581 C   0  0  0  0  0  0  0  0  0  0  0  0
   10.8301   14.8054   24.1919 C   0  0  0  0  0  0  0  0  0  0  0  0
    9.8241   15.8778   23.7860 C   0  0  0  0  0  0  0  0  0  0  0  0
    8.6352   15.2991   23.0229 C   0  0  0  0  0  0  0  0  0  0  0  0
    7.9680   14.1621   23.7945 C   0  0  0  0  0  0  0  0  0  0  0  0
  1  2  1  0
  2  3  2  0
  3  4  1  0
  4  5  1  0
  5  6  1  0
  6  7  2  0
  6  8  1  0
  8  9  1  0
  9 10  1  6
  9 11  1  0
 11 12  1  0
 11 13  1  0
 11 14  1  0
  4 15  2  0
 15 16  1  0
 16 17  1  0
 17 18  1  0
 18 19  1  0
 19 20  1  0
 20 21  1  0
 21 22  1  0
 16  2  1  0
 22 17  1  0
M  END
>  <ref_pdb>  (770) 
A4343b

>  <subsites>  (770) 
1 - Active Site

>  <HIPPO Compound ID>  (770) 
7182

>  <energy_score>  (770) 
-9.806626

>  <fragmenstein_mode>  (770) 
expansion

>  <scratch_subdir>  (770) 
/opt/xchem-fragalysis-2/maxwin/BulkDock/SCRATCH/512027/C7182-P317

>  <smiles>  (770) 
Cc1cc(NC(=O)C[C@@H](C)C(F)(F)F)nn1C1CCCCC1

>  <alias>  (770) 
C7182-P317

>  <ref_mols>  (770) 
A1445a,A4343b

>  <inspiration_score>  (770) 
None

>  <tags>  (770) 
BulkDock Fragalysis export,fragmenstein_placed,openbind_a71ev2a_c1_knitwork_impure,openbind_a71ev2a_c1_scaffolds

>  <fragmenstein_outcome>  (770) 
acceptable

>  <fragmenstein_error>  (770) 


>  <distance_score>  (770) 
0.842784

>  <inchikey>  (770) 
IBTBUYIARLWWHM-UHFFFAOYSA-N

>  <name>  (770) 
C7182-P317

>  <HIPPO Pose ID>  (770) 
402697

>  <Energy>  (770) 
-13.167433

>  <exports>  (770) 
['/opt/xchem-fragalysis-2/maxwin/BulkDock/OUTPUTS/openbind_a71ev2a_c1_knitwork_impure_165VXJF.sdf', '/opt/xchem-fragalysis-2/maxwin/BulkDock/OUTPUTS/openbind_a71ev2a_c1_knitwork_impure_1B07QS4.sdf', '/opt/xchem-fragalysis-2/maxwin/BulkDock/OUTPUTS/openbind_a71ev2a_c1_knitwork_impure_1B07X5R.sdf', '/opt/xchem-fragalysis-2/maxwin/openbind-hippo/a71ev2a/openbind_a71ev2a_c1_scaffold_products.sdf', '/opt/xchem-fragalysis-2/maxwin/openbind-hippo/a71ev2a/cycle_01/bulkdock/openbind_a71ev2a_c1_scaffold_products.sdf', '/opt/xchem-fragalysis-2/maxwin/openbind-hippo/a71ev2a/cycle_01/bulkdock/openbind_a71ev2a_c1_scaffolds.sdf']

>  <fragmenstein_runtime>  (770) 
13.449386

$$$$
C43276-P128
     RDKit          3D

 16 18  0  0  0  0  0  0  0  0999 V2000
    3.9026    9.9788   28.6259 S   0  0  0  0  0  0  0  0  0  0  0  0
    5.0181   10.9292   27.8593 C   0  0  0  0  0  0  0  0  0  0  0  0
    5.1574   12.2674   28.0839 N   0  0  0  0  0  0  0  0  0  0  0  0
    6.1794   12.9073   27.4554 N   0  0  0  0  0  0  0  0  0  0  0  0
    6.8380   12.0790   26.6827 C   0  0  0  0  0  0  0  0  0  0  0  0
    7.9614   12.4575   25.9865 N   0  0  0  0  0  0  0  0  0  0  0  0
    8.2573   13.8820   25.8137 C   0  0  0  0  0  0  0  0  0  0  0  0
    9.5613   14.0684   25.0626 C   0  0  0  0  0  0  0  0  0  0  0  0
    9.6006   12.7677   24.3633 C   0  0  0  0  0  0  0  0  0  0  0  0
   10.3824   12.4678   23.2810 C   0  0  0  0  0  0  0  0  0  0  0  0
   10.2943   11.1744   22.8261 C   0  0  0  0  0  0  0  0  0  0  0  0
    9.5475   10.2072   23.4897 C   0  0  0  0  0  0  0  0  0  0  0  0
    9.7100    8.4334   22.9461 Br  0  0  0  0  0  0  0  0  0  0  0  0
    8.7236   10.5350   24.5499 C   0  0  0  0  0  0  0  0  0  0  0  0
    8.7200   11.8436   24.9694 C   0  0  0  0  0  0  0  0  0  0  0  0
    6.1982   10.4477   26.6860 S   0  0  0  0  0  0  0  0  0  0  0  0
  1  2  2  0
  2  3  1  0
  3  4  1  0
  4  5  2  0
  5  6  1  0
  6  7  1  0
  7  8  1  0
  8  9  1  0
  9 10  2  0
 10 11  1  0
 11 12  2  0
 12 13  1  0
 12 14  1  0
 14 15  2  0
  5 16  1  0
 16  2  1  0
 15  6  1  0
 15  9  1  0
M  END
>  <ref_pdb>  (771) 
A2304a

>  <subsites>  (771) 
1 - Active Site

>  <HIPPO Compound ID>  (771) 
5396

>  <energy_score>  (771) 
-34.51493

>  <fragmenstein_mode>  (771) 
expansion

>  <scratch_subdir>  (771) 
/opt/xchem-fragalysis-2/maxwin/BulkDock/SCRATCH/512027/C43276-P128

>  <smiles>  (771) 
S=c1[nH]nc(N2CCc3ccc(Br)cc32)s1

>  <alias>  (771) 
C43276-P128

>  <ref_mols>  (771) 
A2304a,A1778a

>  <inspiration_score>  (771) 
None

>  <tags>  (771) 
BulkDock Fragalysis export,fragmenstein_placed,openbind_a71ev2a_c1_knitwork_impure,openbind_a71ev2a_c1_scaffolds

>  <fragmenstein_outcome>  (771) 
acceptable

>  <fragmenstein_error>  (771) 


>  <distance_score>  (771) 
0.834364

>  <inchikey>  (771) 
WEQDPGNEWZPZRD-UHFFFAOYSA-N

>  <name>  (771) 
C43276-P128

>  <HIPPO Pose ID>  (771) 
403224

>  <Energy>  (771) 
10.935606

>  <exports>  (771) 
['/opt/xchem-fragalysis-2/maxwin/BulkDock/OUTPUTS/openbind_a71ev2a_c1_knitwork_impure_165VXJF.sdf', '/opt/xchem-fragalysis-2/maxwin/BulkDock/OUTPUTS/openbind_a71ev2a_c1_knitwork_impure_1B07QS4.sdf', '/opt/xchem-fragalysis-2/maxwin/BulkDock/OUTPUTS/openbind_a71ev2a_c1_knitwork_impure_1B07X5R.sdf', '/opt/xchem-fragalysis-2/maxwin/openbind-hippo/a71ev2a/openbind_a71ev2a_c1_scaffold_products.sdf', '/opt/xchem-fragalysis-2/maxwin/openbind-hippo/a71ev2a/cycle_01/bulkdock/openbind_a71ev2a_c1_scaffold_products.sdf', '/opt/xchem-fragalysis-2/maxwin/openbind-hippo/a71ev2a/cycle_01/bulkdock/openbind_a71ev2a_c1_scaffolds.sdf']

>  <fragmenstein_runtime>  (771) 
1.259645

$$$$
C43279-P124
     RDKit          3D

 16 18  0  0  0  0  0  0  0  0999 V2000
   10.2689    8.4552   23.0153 Br  0  0  0  0  0  0  0  0  0  0  0  0
   10.1151   10.1445   23.7720 C   0  0  0  0  0  0  0  0  0  0  0  0
   11.1679   11.0347   23.6085 C   0  0  0  0  0  0  0  0  0  0  0  0
   11.1080   12.2674   24.2259 C   0  0  0  0  0  0  0  0  0  0  0  0
    9.9386   12.6262   24.8608 C   0  0  0  0  0  0  0  0  0  0  0  0
    8.8983   11.7200   25.0645 C   0  0  0  0  0  0  0  0  0  0  0  0
    8.9912   10.4587   24.5281 C   0  0  0  0  0  0  0  0  0  0  0  0
    7.9231   12.2300   25.9195 N   0  0  0  0  0  0  0  0  0  0  0  0
    6.5453   11.7583   25.8727 C   0  0  0  0  0  0  0  0  0  0  0  0
    5.5978   12.2988   26.9171 C   0  0  0  0  0  0  0  0  0  0  0  0
    4.7307   13.4141   26.7919 C   0  0  0  0  0  0  0  0  0  0  0  0
    4.0799   13.4973   27.9980 C   0  0  0  0  0  0  0  0  0  0  0  0
    4.5634   12.4748   28.7580 N   0  0  0  0  0  0  0  0  0  0  0  0
    5.4818   11.7255   28.1263 N   0  0  0  0  0  0  0  0  0  0  0  0
    8.1386   13.6765   25.8784 C   0  0  0  0  0  0  0  0  0  0  0  0
    9.5932   13.9372   25.4691 C   0  0  0  0  0  0  0  0  0  0  0  0
  1  2  1  0
  2  3  2  0
  3  4  1  0
  4  5  2  0
  5  6  1  0
  6  7  2  0
  6  8  1  0
  8  9  1  0
  9 10  1  0
 10 11  1  0
 11 12  2  0
 12 13  1  0
 13 14  1  0
  8 15  1  0
 15 16  1  0
  7  2  1  0
 14 10  2  0
 16  5  1  0
M  END
>  <ref_pdb>  (772) 
A1778a

>  <subsites>  (772) 
1 - Active Site

>  <HIPPO Compound ID>  (772) 
2416

>  <energy_score>  (772) 
-14.956447

>  <fragmenstein_mode>  (772) 
expansion

>  <scratch_subdir>  (772) 
/opt/xchem-fragalysis-2/maxwin/BulkDock/SCRATCH/512027/C43279-P124

>  <smiles>  (772) 
Brc1ccc2c(c1)N(Cc1cc[nH]n1)CC2

>  <alias>  (772) 
C43279-P124

>  <ref_mols>  (772) 
A2304a,A1778a

>  <inspiration_score>  (772) 
None

>  <tags>  (772) 
BulkDock Fragalysis export,fragmenstein_placed,openbind_a71ev2a_c1_knitwork_impure,openbind_a71ev2a_c1_scaffolds

>  <fragmenstein_outcome>  (772) 
acceptable

>  <fragmenstein_error>  (772) 


>  <distance_score>  (772) 
0.833238

>  <inchikey>  (772) 
QLHWJOTYGUXPGV-UHFFFAOYSA-N

>  <name>  (772) 
C43279-P124

>  <HIPPO Pose ID>  (772) 
403229

>  <Energy>  (772) 
61.067387

>  <exports>  (772) 
['/opt/xchem-fragalysis-2/maxwin/BulkDock/OUTPUTS/openbind_a71ev2a_c1_knitwork_impure_165VXJF.sdf', '/opt/xchem-fragalysis-2/maxwin/BulkDock/OUTPUTS/openbind_a71ev2a_c1_knitwork_impure_1B07QS4.sdf', '/opt/xchem-fragalysis-2/maxwin/BulkDock/OUTPUTS/openbind_a71ev2a_c1_knitwork_impure_1B07X5R.sdf', '/opt/xchem-fragalysis-2/maxwin/openbind-hippo/a71ev2a/openbind_a71ev2a_c1_scaffold_products.sdf', '/opt/xchem-fragalysis-2/maxwin/openbind-hippo/a71ev2a/cycle_01/bulkdock/openbind_a71ev2a_c1_scaffold_products.sdf', '/opt/xchem-fragalysis-2/maxwin/openbind-hippo/a71ev2a/cycle_01/bulkdock/openbind_a71ev2a_c1_scaffolds.sdf']

>  <fragmenstein_runtime>  (772) 
1.14626

$$$$
C43281-P124
     RDKit          3D

 16 18  0  0  0  0  0  0  0  0999 V2000
   11.6990   12.6953   22.7138 F   0  0  0  0  0  0  0  0  0  0  0  0
   10.8431   11.8478   23.2935 C   0  0  0  0  0  0  0  0  0  0  0  0
   10.8803   10.4996   22.9757 C   0  0  0  0  0  0  0  0  0  0  0  0
    9.9452    9.6357   23.5485 C   0  0  0  0  0  0  0  0  0  0  0  0
    8.9772   10.1234   24.4389 C   0  0  0  0  0  0  0  0  0  0  0  0
    8.9556   11.4651   24.7692 C   0  0  0  0  0  0  0  0  0  0  0  0
    9.9006   12.3121   24.1889 C   0  0  0  0  0  0  0  0  0  0  0  0
    9.7300   13.6845   24.7257 C   0  0  0  0  0  0  0  0  0  0  0  0
    8.3366   13.5552   25.3354 C   0  0  0  0  0  0  0  0  0  0  0  0
    8.1353   12.1380   25.6913 N   0  0  0  0  0  0  0  0  0  0  0  0
    6.7400   11.7298   25.9033 C   0  0  0  0  0  0  0  0  0  0  0  0
    5.9879   12.3826   27.0484 C   0  0  0  0  0  0  0  0  0  0  0  0
    6.5185   13.0576   28.1793 C   0  0  0  0  0  0  0  0  0  0  0  0
    5.4274   13.4844   28.8943 C   0  0  0  0  0  0  0  0  0  0  0  0
    4.3359   13.0632   28.1947 N   0  0  0  0  0  0  0  0  0  0  0  0
    4.6452   12.3649   27.0895 N   0  0  0  0  0  0  0  0  0  0  0  0
  1  2  1  0
  2  3  2  0
  3  4  1  0
  4  5  2  0
  5  6  1  0
  6  7  2  0
  7  8  1  0
  8  9  1  0
  9 10  1  0
 10 11  1  0
 11 12  1  0
 12 13  1  0
 13 14  2  0
 14 15  1  0
 15 16  1  0
  7  2  1  0
 16 12  2  0
 10  6  1  0
M  END
>  <ref_pdb>  (773) 
A1778a

>  <subsites>  (773) 
1 - Active Site

>  <HIPPO Compound ID>  (773) 
7443

>  <energy_score>  (773) 
-24.60724

>  <fragmenstein_mode>  (773) 
expansion

>  <scratch_subdir>  (773) 
/opt/xchem-fragalysis-2/maxwin/BulkDock/SCRATCH/512027/C43281-P124

>  <smiles>  (773) 
Fc1cccc2c1CCN2Cc1cc[nH]n1

>  <alias>  (773) 
C43281-P124

>  <ref_mols>  (773) 
A2304a,A1778a

>  <inspiration_score>  (773) 
None

>  <tags>  (773) 
BulkDock Fragalysis export,fragmenstein_placed,openbind_a71ev2a_c1_knitwork_impure,openbind_a71ev2a_c1_scaffolds

>  <fragmenstein_outcome>  (773) 
acceptable

>  <fragmenstein_error>  (773) 


>  <distance_score>  (773) 
0.647186

>  <inchikey>  (773) 
KVIFGEJVMMIWBY-UHFFFAOYSA-N

>  <name>  (773) 
C43281-P124

>  <HIPPO Pose ID>  (773) 
403233

>  <Energy>  (773) 
52.451934

>  <exports>  (773) 
['/opt/xchem-fragalysis-2/maxwin/BulkDock/OUTPUTS/openbind_a71ev2a_c1_knitwork_impure_165VXJF.sdf', '/opt/xchem-fragalysis-2/maxwin/BulkDock/OUTPUTS/openbind_a71ev2a_c1_knitwork_impure_1B07QS4.sdf', '/opt/xchem-fragalysis-2/maxwin/BulkDock/OUTPUTS/openbind_a71ev2a_c1_knitwork_impure_1B07X5R.sdf', '/opt/xchem-fragalysis-2/maxwin/openbind-hippo/a71ev2a/openbind_a71ev2a_c1_scaffold_products.sdf', '/opt/xchem-fragalysis-2/maxwin/openbind-hippo/a71ev2a/cycle_01/bulkdock/openbind_a71ev2a_c1_scaffold_products.sdf', '/opt/xchem-fragalysis-2/maxwin/openbind-hippo/a71ev2a/cycle_01/bulkdock/openbind_a71ev2a_c1_scaffolds.sdf']

>  <fragmenstein_runtime>  (773) 
1.156595

$$$$
C12323-P321
     RDKit          3D

 12 12  0  0  0  0  0  0  0  0999 V2000
    7.5489   15.2567   26.6489 C   0  0  0  0  0  0  0  0  0  0  0  0
    8.2444   15.0175   25.3191 C   0  0  0  0  0  0  0  0  0  0  0  0
    7.2317   14.8595   24.1963 C   0  0  0  0  0  0  0  0  0  0  0  0
    7.8867   14.0614   22.7343 S   0  0  0  0  0  0  0  0  0  0  0  0
    8.7321   15.0046   22.0391 O   0  0  0  0  0  0  0  0  0  0  0  0
    6.8061   13.3893   22.0462 O   0  0  0  0  0  0  0  0  0  0  0  0
    8.9083   12.8396   23.2753 N   0  0  0  0  0  0  0  0  0  0  0  0
    8.5017   11.7016   23.9994 C   0  0  0  0  0  0  0  0  0  0  0  0
    9.0993   10.4014   23.8775 C   0  0  0  0  0  0  0  0  0  0  0  0
    8.5797    9.4192   24.6103 N   0  0  0  0  0  0  0  0  0  0  0  0
    7.3610   10.0416   25.5310 S   0  0  0  0  0  0  0  0  0  0  0  0
    7.4855   11.6261   24.9278 C   0  0  0  0  0  0  0  0  0  0  0  0
  1  2  1  0
  2  3  1  0
  3  4  1  0
  4  5  2  0
  4  6  2  0
  4  7  1  0
  7  8  1  0
  8  9  1  0
  9 10  2  0
 10 11  1  0
 11 12  1  0
 12  8  2  0
M  END
>  <ref_pdb>  (774) 
A4350a

>  <subsites>  (774) 
1 - Active Site

>  <HIPPO Compound ID>  (774) 
12352

>  <energy_score>  (774) 
-41.892291

>  <fragmenstein_mode>  (774) 
expansion

>  <scratch_subdir>  (774) 
/opt/xchem-fragalysis-2/maxwin/BulkDock/SCRATCH/512027/C12323-P321

>  <smiles>  (774) 
CCCS(=O)(=O)Nc1cnsc1

>  <alias>  (774) 
C12323-P321

>  <ref_mols>  (774) 
A4350a,A0719a

>  <inspiration_score>  (774) 
None

>  <tags>  (774) 
BulkDock Fragalysis export,fragmenstein_placed,openbind_a71ev2a_c1_knitwork_impure,openbind_a71ev2a_c1_scaffolds

>  <fragmenstein_outcome>  (774) 
acceptable

>  <fragmenstein_error>  (774) 


>  <distance_score>  (774) 
0.988411

>  <inchikey>  (774) 
OEOUTLNRPVGOPE-UHFFFAOYSA-N

>  <name>  (774) 
C12323-P321

>  <HIPPO Pose ID>  (774) 
403547

>  <Energy>  (774) 
-41.988959

>  <exports>  (774) 
['/opt/xchem-fragalysis-2/maxwin/BulkDock/OUTPUTS/openbind_a71ev2a_c1_knitwork_impure_165VXJF.sdf', '/opt/xchem-fragalysis-2/maxwin/BulkDock/OUTPUTS/openbind_a71ev2a_c1_knitwork_impure_1B07QS4.sdf', '/opt/xchem-fragalysis-2/maxwin/BulkDock/OUTPUTS/openbind_a71ev2a_c1_knitwork_impure_1B07X5R.sdf', '/opt/xchem-fragalysis-2/maxwin/openbind-hippo/a71ev2a/openbind_a71ev2a_c1_scaffold_products.sdf', '/opt/xchem-fragalysis-2/maxwin/openbind-hippo/a71ev2a/cycle_01/bulkdock/openbind_a71ev2a_c1_scaffold_products.sdf', '/opt/xchem-fragalysis-2/maxwin/openbind-hippo/a71ev2a/cycle_01/bulkdock/openbind_a71ev2a_c1_scaffolds.sdf']

>  <fragmenstein_runtime>  (774) 
1.871546

$$$$
C7587-P321
     RDKit          3D

 12 12  0  0  0  0  0  0  0  0999 V2000
    7.0944   15.2439   26.7937 C   0  0  0  0  0  0  0  0  0  0  0  0
    7.8395   15.1410   25.4759 C   0  0  0  0  0  0  0  0  0  0  0  0
    6.9135   14.6826   24.3601 C   0  0  0  0  0  0  0  0  0  0  0  0
    7.7917   14.0949   22.9184 S   0  0  0  0  0  0  0  0  0  0  0  0
    8.4215   15.2183   22.2655 O   0  0  0  0  0  0  0  0  0  0  0  0
    6.9494   13.1839   22.1798 O   0  0  0  0  0  0  0  0  0  0  0  0
    9.0440   13.1938   23.5278 N   0  0  0  0  0  0  0  0  0  0  0  0
    8.9895   12.0049   24.3790 C   0  0  2  0  0  0  0  0  0  0  0  0
    9.5557   10.7968   23.6665 C   0  0  0  0  0  0  0  0  0  0  0  0
    8.7744    9.5938   24.1485 C   0  0  0  0  0  0  0  0  0  0  0  0
    7.8841   10.0764   25.2109 N   0  0  0  0  0  0  0  0  0  0  0  0
    7.6635   11.5030   24.9153 C   0  0  0  0  0  0  0  0  0  0  0  0
  1  2  1  0
  2  3  1  0
  3  4  1  0
  4  5  2  0
  4  6  2  0
  4  7  1  0
  8  7  1  6
  8  9  1  0
  9 10  1  0
 10 11  1  0
 11 12  1  0
 12  8  1  0
M  END
>  <ref_pdb>  (775) 
A4350a

>  <subsites>  (775) 
1 - Active Site

>  <HIPPO Compound ID>  (775) 
7587

>  <energy_score>  (775) 
-26.801199

>  <fragmenstein_mode>  (775) 
expansion

>  <scratch_subdir>  (775) 
/opt/xchem-fragalysis-2/maxwin/BulkDock/SCRATCH/512027/C7587-P321

>  <smiles>  (775) 
CCCS(=O)(=O)N[C@@H]1CCNC1

>  <alias>  (775) 
C7587-P321

>  <ref_mols>  (775) 
A4350a,A0719a

>  <inspiration_score>  (775) 
None

>  <tags>  (775) 
BulkDock Fragalysis export,fragmenstein_placed,openbind_a71ev2a_c1_knitwork_impure,openbind_a71ev2a_c1_scaffolds

>  <fragmenstein_outcome>  (775) 
acceptable

>  <fragmenstein_error>  (775) 


>  <distance_score>  (775) 
0.989723

>  <inchikey>  (775) 
ZWKQUCJFDUBTGP-UHFFFAOYSA-N

>  <name>  (775) 
C7587-P321

>  <HIPPO Pose ID>  (775) 
403571

>  <Energy>  (775) 
-39.879817

>  <exports>  (775) 
['/opt/xchem-fragalysis-2/maxwin/BulkDock/OUTPUTS/openbind_a71ev2a_c1_knitwork_impure_165VXJF.sdf', '/opt/xchem-fragalysis-2/maxwin/BulkDock/OUTPUTS/openbind_a71ev2a_c1_knitwork_impure_1B07QS4.sdf', '/opt/xchem-fragalysis-2/maxwin/BulkDock/OUTPUTS/openbind_a71ev2a_c1_knitwork_impure_1B07X5R.sdf', '/opt/xchem-fragalysis-2/maxwin/openbind-hippo/a71ev2a/openbind_a71ev2a_c1_scaffold_products.sdf', '/opt/xchem-fragalysis-2/maxwin/openbind-hippo/a71ev2a/cycle_01/bulkdock/openbind_a71ev2a_c1_scaffold_products.sdf', '/opt/xchem-fragalysis-2/maxwin/openbind-hippo/a71ev2a/cycle_01/bulkdock/openbind_a71ev2a_c1_scaffolds.sdf']

>  <fragmenstein_runtime>  (775) 
2.996842

$$$$
C7653-P321
     RDKit          3D

 13 13  0  0  0  0  0  0  0  0999 V2000
    6.6945   15.3894   26.7763 C   0  0  0  0  0  0  0  0  0  0  0  0
    7.5687   15.3452   25.5382 C   0  0  0  0  0  0  0  0  0  0  0  0
    6.7791   14.8780   24.3209 C   0  0  0  0  0  0  0  0  0  0  0  0
    7.8242   14.2413   23.0146 S   0  0  0  0  0  0  0  0  0  0  0  0
    8.4493   15.3574   22.3442 O   0  0  0  0  0  0  0  0  0  0  0  0
    7.1184   13.2225   22.2693 O   0  0  0  0  0  0  0  0  0  0  0  0
    9.0660   13.4998   23.8599 N   0  0  0  0  0  0  0  0  0  0  0  0
    9.0234   12.1545   24.4762 C   0  0  1  0  0  0  0  0  0  0  0  0
    7.7080   11.7813   25.1743 C   0  0  0  0  0  0  0  0  0  0  0  0
    7.5374   10.3086   25.3976 C   0  0  0  0  0  0  0  0  0  0  0  0
    8.3034    9.3932   24.7923 C   0  0  0  0  0  0  0  0  0  0  0  0
    9.4211    9.6967   23.8531 C   0  0  0  0  0  0  0  0  0  0  0  0
    9.4170   11.1472   23.4191 C   0  0  0  0  0  0  0  0  0  0  0  0
  1  2  1  0
  2  3  1  0
  3  4  1  0
  4  5  2  0
  4  6  2  0
  4  7  1  0
  8  7  1  6
  8  9  1  0
  9 10  1  0
 10 11  2  0
 11 12  1  0
 12 13  1  0
 13  8  1  0
M  END
>  <ref_pdb>  (776) 
A4350a

>  <subsites>  (776) 
1 - Active Site

>  <HIPPO Compound ID>  (776) 
2409

>  <energy_score>  (776) 
-33.791524

>  <fragmenstein_mode>  (776) 
expansion

>  <scratch_subdir>  (776) 
/opt/xchem-fragalysis-2/maxwin/BulkDock/SCRATCH/512027/C7653-P321

>  <smiles>  (776) 
CCCS(=O)(=O)N[C@H]1CC=CCC1

>  <alias>  (776) 
C7653-P321

>  <ref_mols>  (776) 
A4350a,A0719a

>  <inspiration_score>  (776) 
None

>  <tags>  (776) 
BulkDock Fragalysis export,fragmenstein_placed,openbind_a71ev2a_c1_knitwork_impure,openbind_a71ev2a_c1_scaffolds

>  <fragmenstein_outcome>  (776) 
acceptable

>  <fragmenstein_error>  (776) 


>  <distance_score>  (776) 
0.978147

>  <inchikey>  (776) 
PFPJWHGWJHUTES-UHFFFAOYSA-N

>  <name>  (776) 
C7653-P321

>  <HIPPO Pose ID>  (776) 
403607

>  <Energy>  (776) 
-46.591594

>  <exports>  (776) 
['/opt/xchem-fragalysis-2/maxwin/BulkDock/OUTPUTS/openbind_a71ev2a_c1_knitwork_impure_165VXJF.sdf', '/opt/xchem-fragalysis-2/maxwin/BulkDock/OUTPUTS/openbind_a71ev2a_c1_knitwork_impure_1B07QS4.sdf', '/opt/xchem-fragalysis-2/maxwin/BulkDock/OUTPUTS/openbind_a71ev2a_c1_knitwork_impure_1B07X5R.sdf', '/opt/xchem-fragalysis-2/maxwin/openbind-hippo/a71ev2a/openbind_a71ev2a_c1_scaffold_products.sdf', '/opt/xchem-fragalysis-2/maxwin/openbind-hippo/a71ev2a/cycle_01/bulkdock/openbind_a71ev2a_c1_scaffold_products.sdf', '/opt/xchem-fragalysis-2/maxwin/openbind-hippo/a71ev2a/cycle_01/bulkdock/openbind_a71ev2a_c1_scaffolds.sdf']

>  <fragmenstein_runtime>  (776) 
13.08159

$$$$
C8155-P390
     RDKit          3D

 16 16  0  0  0  0  0  0  0  0999 V2000
   10.5187   15.1962   18.4155 C   0  0  0  0  0  0  0  0  0  0  0  0
   10.7156   15.5371   19.8379 C   0  0  0  0  0  0  0  0  0  0  0  0
   11.5956   14.8570   20.5740 C   0  0  0  0  0  0  0  0  0  0  0  0
   11.9924   15.1547   21.9150 C   0  0  0  0  0  0  0  0  0  0  0  0
   11.2021   15.3755   22.9660 C   0  0  0  0  0  0  0  0  0  0  0  0
    9.7294   15.5402   22.9865 C   0  0  0  0  0  0  0  0  0  0  0  0
    9.0869   14.3470   22.5009 N   0  0  0  0  0  0  0  0  0  0  0  0
    7.6365   13.9783   23.1895 S   0  0  0  0  0  0  0  0  0  0  0  0
    6.9622   15.1778   23.6048 O   0  0  0  0  0  0  0  0  0  0  0  0
    7.0293   13.0088   22.3138 O   0  0  0  0  0  0  0  0  0  0  0  0
    8.1353   13.2144   24.5999 N   0  0  0  0  0  0  0  0  0  0  0  0
    9.4981   12.6938   24.6593 C   0  0  0  0  0  0  0  0  0  0  0  0
    9.5958   11.4479   23.8275 C   0  0  0  0  0  0  0  0  0  0  0  0
    8.6794   10.3782   24.3666 C   0  0  0  0  0  0  0  0  0  0  0  0
    7.6528   10.8840   25.3817 C   0  0  0  0  0  0  0  0  0  0  0  0
    7.1219   12.3010   25.1785 C   0  0  0  0  0  0  0  0  0  0  0  0
  1  2  1  0
  2  3  2  3
  3  4  1  0
  4  5  2  3
  5  6  1  0
  6  7  1  0
  7  8  1  0
  8  9  2  0
  8 10  2  0
  8 11  1  0
 11 12  1  0
 12 13  1  0
 13 14  1  0
 14 15  1  0
 15 16  1  0
 16 11  1  0
M  END
>  <ref_pdb>  (777) 
A4524a

>  <subsites>  (777) 
1 - Active Site

>  <HIPPO Compound ID>  (777) 
8484

>  <energy_score>  (777) 
-29.992482

>  <fragmenstein_mode>  (777) 
expansion

>  <scratch_subdir>  (777) 
/opt/xchem-fragalysis-2/maxwin/BulkDock/SCRATCH/512206/C8155-P390

>  <smiles>  (777) 
CC=CC=CCNS(=O)(=O)N1CCCCC1

>  <alias>  (777) 
C8155-P390

>  <ref_mols>  (777) 
A0719a,A4524a

>  <inspiration_score>  (777) 
None

>  <tags>  (777) 
BulkDock Fragalysis export,fragmenstein_placed,openbind_a71ev2a_c1_knitwork_impure,openbind_a71ev2a_c1_scaffolds

>  <fragmenstein_outcome>  (777) 
acceptable

>  <fragmenstein_error>  (777) 


>  <distance_score>  (777) 
0.898093

>  <inchikey>  (777) 
YCCKCVPWORBAJK-UHFFFAOYSA-N

>  <name>  (777) 
C8155-P390

>  <HIPPO Pose ID>  (777) 
404007

>  <Energy>  (777) 
-173.885533

>  <exports>  (777) 
['/opt/xchem-fragalysis-2/maxwin/BulkDock/OUTPUTS/openbind_a71ev2a_c1_knitwork_impure_165VXJF.sdf', '/opt/xchem-fragalysis-2/maxwin/BulkDock/OUTPUTS/openbind_a71ev2a_c1_knitwork_impure_1B07QS4.sdf', '/opt/xchem-fragalysis-2/maxwin/BulkDock/OUTPUTS/openbind_a71ev2a_c1_knitwork_impure_1B07X5R.sdf', '/opt/xchem-fragalysis-2/maxwin/openbind-hippo/a71ev2a/openbind_a71ev2a_c1_scaffold_products.sdf', '/opt/xchem-fragalysis-2/maxwin/openbind-hippo/a71ev2a/cycle_01/bulkdock/openbind_a71ev2a_c1_scaffold_products.sdf', '/opt/xchem-fragalysis-2/maxwin/openbind-hippo/a71ev2a/cycle_01/bulkdock/openbind_a71ev2a_c1_scaffolds.sdf']

>  <fragmenstein_runtime>  (777) 
25.405164

$$$$
C8169-P390
     RDKit          3D

 14 14  0  0  0  0  0  0  0  0999 V2000
    7.9029   14.9447   24.4478 O   0  0  0  0  0  0  0  0  0  0  0  0
    7.9569   14.1147   23.2686 S   0  0  0  0  0  0  0  0  0  0  0  0
    6.8675   13.9792   22.3372 O   0  0  0  0  0  0  0  0  0  0  0  0
    9.3132   14.4985   22.4187 N   0  0  0  0  0  0  0  0  0  0  0  0
   10.4470   15.0972   23.1247 C   0  0  0  0  0  0  0  0  0  0  0  0
   11.7488   14.7533   22.4140 C   0  0  0  0  0  0  0  0  0  0  0  0
   11.9494   15.5979   21.1740 C   0  0  0  0  0  0  0  0  0  0  0  0
   10.7620   15.2432   19.9036 Cl  0  0  0  0  0  0  0  0  0  0  0  0
    8.3069   12.5673   23.7680 N   0  0  0  0  0  0  0  0  0  0  0  0
    7.3803   12.0741   24.8024 C   0  0  0  0  0  0  0  0  0  0  0  0
    7.7747   10.6905   25.2786 C   0  0  0  0  0  0  0  0  0  0  0  0
    8.6542    9.9005   24.3242 C   0  0  0  0  0  0  0  0  0  0  0  0
    9.7658   10.6738   23.6930 C   0  0  0  0  0  0  0  0  0  0  0  0
    9.6893   12.1522   23.9731 C   0  0  0  0  0  0  0  0  0  0  0  0
  1  2  2  0
  2  3  2  0
  2  4  1  0
  4  5  1  0
  5  6  1  0
  6  7  1  0
  7  8  1  0
  2  9  1  0
  9 10  1  0
 10 11  1  0
 11 12  1  0
 12 13  1  0
 13 14  1  0
 14  9  1  0
M  END
>  <ref_pdb>  (778) 
A4524a

>  <subsites>  (778) 
1 - Active Site

>  <HIPPO Compound ID>  (778) 
498

>  <energy_score>  (778) 
-26.899286

>  <fragmenstein_mode>  (778) 
expansion

>  <scratch_subdir>  (778) 
/opt/xchem-fragalysis-2/maxwin/BulkDock/SCRATCH/512206/C8169-P390

>  <smiles>  (778) 
O=S(=O)(NCCCCl)N1CCCCC1

>  <alias>  (778) 
C8169-P390

>  <ref_mols>  (778) 
A0719a,A4524a

>  <inspiration_score>  (778) 
None

>  <tags>  (778) 
BulkDock Fragalysis export,fragmenstein_placed,openbind_a71ev2a_c1_knitwork_impure,openbind_a71ev2a_c1_scaffolds

>  <fragmenstein_outcome>  (778) 
acceptable

>  <fragmenstein_error>  (778) 


>  <distance_score>  (778) 
0.755353

>  <inchikey>  (778) 
BVXIXHZBAAESKN-UHFFFAOYSA-N

>  <name>  (778) 
C8169-P390

>  <HIPPO Pose ID>  (778) 
404014

>  <Energy>  (778) 
-164.59836

>  <exports>  (778) 
['/opt/xchem-fragalysis-2/maxwin/BulkDock/OUTPUTS/openbind_a71ev2a_c1_knitwork_impure_165VXJF.sdf', '/opt/xchem-fragalysis-2/maxwin/BulkDock/OUTPUTS/openbind_a71ev2a_c1_knitwork_impure_1B07QS4.sdf', '/opt/xchem-fragalysis-2/maxwin/BulkDock/OUTPUTS/openbind_a71ev2a_c1_knitwork_impure_1B07X5R.sdf', '/opt/xchem-fragalysis-2/maxwin/openbind-hippo/a71ev2a/openbind_a71ev2a_c1_scaffold_products.sdf', '/opt/xchem-fragalysis-2/maxwin/openbind-hippo/a71ev2a/cycle_01/bulkdock/openbind_a71ev2a_c1_scaffold_products.sdf', '/opt/xchem-fragalysis-2/maxwin/openbind-hippo/a71ev2a/cycle_01/bulkdock/openbind_a71ev2a_c1_scaffolds.sdf']

>  <fragmenstein_runtime>  (778) 
27.307053

$$$$
C13035-P151
     RDKit          3D

 18 19  0  0  0  0  0  0  0  0999 V2000
    3.1987   12.5107   29.9898 C   0  0  0  0  0  0  0  0  0  0  0  0
    3.3007   10.9880   29.8730 C   0  0  2  0  0  0  0  0  0  0  0  0
    4.0860   10.4636   28.6552 C   0  0  0  0  0  0  0  0  0  0  0  0
    5.3102   11.2582   28.1983 C   0  0  0  0  0  0  0  0  0  0  0  0
    5.6040   12.3001   28.6342 O   0  0  0  0  0  0  0  0  0  0  0  0
    5.9367   10.4406   27.0323 N   0  0  0  0  0  0  0  0  0  0  0  0
    6.9305   10.7650   26.1601 C   0  0  0  0  0  0  0  0  0  0  0  0
    7.6168    9.8589   25.3023 C   0  0  0  0  0  0  0  0  0  0  0  0
    8.4852   10.6487   24.6035 C   0  0  0  0  0  0  0  0  0  0  0  0
    8.2315   11.9097   25.0081 N   0  0  0  0  0  0  0  0  0  0  0  0
    7.3685   12.0200   26.0023 N   0  0  0  0  0  0  0  0  0  0  0  0
    9.0216   12.9365   24.3668 C   0  0  0  0  0  0  0  0  0  0  0  0
   10.0900   12.0892   23.6490 C   0  0  0  0  0  0  0  0  0  0  0  0
    9.5621   10.6237   23.6056 C   0  0  0  0  0  0  0  0  0  0  0  0
    1.8831   10.4280   29.8272 C   0  0  0  0  0  0  0  0  0  0  0  0
    1.2175   10.6784   30.9734 F   0  0  0  0  0  0  0  0  0  0  0  0
    1.8859    9.0899   29.6424 F   0  0  0  0  0  0  0  0  0  0  0  0
    1.1762   10.9662   28.8064 F   0  0  0  0  0  0  0  0  0  0  0  0
  2  1  1  6
  2  3  1  0
  3  4  1  0
  4  5  2  0
  4  6  1  0
  6  7  1  0
  7  8  1  0
  8  9  2  0
  9 10  1  0
 10 11  1  0
 10 12  1  0
 12 13  1  0
 13 14  1  0
  2 15  1  0
 15 16  1  0
 15 17  1  0
 15 18  1  0
 11  7  2  0
 14  9  1  0
M  END
>  <ref_pdb>  (779) 
A3194a

>  <subsites>  (779) 
1 - Active Site

>  <HIPPO Compound ID>  (779) 
1682

>  <energy_score>  (779) 
-10.203222

>  <fragmenstein_mode>  (779) 
expansion

>  <scratch_subdir>  (779) 
/opt/xchem-fragalysis-2/maxwin/BulkDock/SCRATCH/512206/C13035-P151

>  <smiles>  (779) 
C[C@H](CC(=O)Nc1cc2n(n1)CCC2)C(F)(F)F

>  <alias>  (779) 
C13035-P151

>  <ref_mols>  (779) 
A1445a,A3194a

>  <inspiration_score>  (779) 
None

>  <tags>  (779) 
BulkDock Fragalysis export,fragmenstein_placed,openbind_a71ev2a_c1_knitwork_impure,openbind_a71ev2a_c1_scaffolds

>  <fragmenstein_outcome>  (779) 
acceptable

>  <fragmenstein_error>  (779) 


>  <distance_score>  (779) 
0.801333

>  <inchikey>  (779) 
WPHZCKRFPCKMPN-UHFFFAOYSA-N

>  <name>  (779) 
C13035-P151

>  <HIPPO Pose ID>  (779) 
404020

>  <Energy>  (779) 
-7.788424

>  <exports>  (779) 
['/opt/xchem-fragalysis-2/maxwin/BulkDock/OUTPUTS/openbind_a71ev2a_c1_knitwork_impure_165VXJF.sdf', '/opt/xchem-fragalysis-2/maxwin/BulkDock/OUTPUTS/openbind_a71ev2a_c1_knitwork_impure_1B07QS4.sdf', '/opt/xchem-fragalysis-2/maxwin/BulkDock/OUTPUTS/openbind_a71ev2a_c1_knitwork_impure_1B07X5R.sdf', '/opt/xchem-fragalysis-2/maxwin/openbind-hippo/a71ev2a/openbind_a71ev2a_c1_scaffold_products.sdf', '/opt/xchem-fragalysis-2/maxwin/openbind-hippo/a71ev2a/cycle_01/bulkdock/openbind_a71ev2a_c1_scaffold_products.sdf', '/opt/xchem-fragalysis-2/maxwin/openbind-hippo/a71ev2a/cycle_01/bulkdock/openbind_a71ev2a_c1_scaffolds.sdf']

>  <fragmenstein_runtime>  (779) 
2.549801

$$$$
C7181-P151
     RDKit          3D

 21 22  0  0  0  0  0  0  0  0999 V2000
    3.2449   12.5440   29.9785 C   0  0  0  0  0  0  0  0  0  0  0  0
    3.3824   11.0292   29.8019 C   0  0  2  0  0  0  0  0  0  0  0  0
    4.1552   10.5875   28.5424 C   0  0  0  0  0  0  0  0  0  0  0  0
    5.3983   11.3926   28.1529 C   0  0  0  0  0  0  0  0  0  0  0  0
    5.7228   12.3755   28.6936 O   0  0  0  0  0  0  0  0  0  0  0  0
    5.9939   10.6874   26.8986 N   0  0  0  0  0  0  0  0  0  0  0  0
    6.9889   11.0783   26.0533 C   0  0  0  0  0  0  0  0  0  0  0  0
    7.6761   10.2702   25.1258 C   0  0  0  0  0  0  0  0  0  0  0  0
    8.5025   11.1311   24.4355 C   0  0  0  0  0  0  0  0  0  0  0  0
    8.2438   12.3742   24.9364 N   0  0  0  0  0  0  0  0  0  0  0  0
    8.7895   13.6642   24.5160 C   0  0  0  0  0  0  0  0  0  0  0  0
    8.6349   13.9446   23.0085 C   0  0  0  0  0  0  0  0  0  0  0  0
    9.9640   13.8794   22.2637 C   0  0  0  0  0  0  0  0  0  0  0  0
   10.9910   14.8626   22.8221 C   0  0  0  0  0  0  0  0  0  0  0  0
   10.9051   15.0360   24.3373 C   0  0  0  0  0  0  0  0  0  0  0  0
   10.2302   13.8511   25.0164 C   0  0  0  0  0  0  0  0  0  0  0  0
    7.4013   12.3406   25.9832 N   0  0  0  0  0  0  0  0  0  0  0  0
    1.9757   10.4381   29.7647 C   0  0  0  0  0  0  0  0  0  0  0  0
    1.3264   10.6381   30.9311 F   0  0  0  0  0  0  0  0  0  0  0  0
    2.0007    9.1068   29.5390 F   0  0  0  0  0  0  0  0  0  0  0  0
    1.2351   10.9923   28.7768 F   0  0  0  0  0  0  0  0  0  0  0  0
  2  1  1  6
  2  3  1  0
  3  4  1  0
  4  5  2  0
  4  6  1  0
  6  7  1  0
  7  8  1  0
  8  9  2  0
  9 10  1  0
 10 11  1  0
 11 12  1  0
 12 13  1  0
 13 14  1  0
 14 15  1  0
 15 16  1  0
 10 17  1  0
  2 18  1  0
 18 19  1  0
 18 20  1  0
 18 21  1  0
 17  7  2  0
 16 11  1  0
M  END
>  <ref_pdb>  (780) 
A3194a

>  <subsites>  (780) 
1 - Active Site

>  <HIPPO Compound ID>  (780) 
2617

>  <energy_score>  (780) 
-2.274469

>  <fragmenstein_mode>  (780) 
expansion

>  <scratch_subdir>  (780) 
/opt/xchem-fragalysis-2/maxwin/BulkDock/SCRATCH/512206/C7181-P151

>  <smiles>  (780) 
C[C@H](CC(=O)Nc1ccn(C2CCCCC2)n1)C(F)(F)F

>  <alias>  (780) 
C7181-P151

>  <ref_mols>  (780) 
A1445a,A3194a

>  <inspiration_score>  (780) 
None

>  <tags>  (780) 
BulkDock Fragalysis export,fragmenstein_placed,openbind_a71ev2a_c1_knitwork_impure,openbind_a71ev2a_c1_scaffolds

>  <fragmenstein_outcome>  (780) 
acceptable

>  <fragmenstein_error>  (780) 


>  <distance_score>  (780) 
0.875707

>  <inchikey>  (780) 
BFAIKMGDZZASRD-UHFFFAOYSA-N

>  <name>  (780) 
C7181-P151

>  <HIPPO Pose ID>  (780) 
404063

>  <Energy>  (780) 
-10.277383

>  <exports>  (780) 
['/opt/xchem-fragalysis-2/maxwin/BulkDock/OUTPUTS/openbind_a71ev2a_c1_knitwork_impure_165VXJF.sdf', '/opt/xchem-fragalysis-2/maxwin/BulkDock/OUTPUTS/openbind_a71ev2a_c1_knitwork_impure_1B07QS4.sdf', '/opt/xchem-fragalysis-2/maxwin/BulkDock/OUTPUTS/openbind_a71ev2a_c1_knitwork_impure_1B07X5R.sdf', '/opt/xchem-fragalysis-2/maxwin/openbind-hippo/a71ev2a/openbind_a71ev2a_c1_scaffold_products.sdf', '/opt/xchem-fragalysis-2/maxwin/openbind-hippo/a71ev2a/cycle_01/bulkdock/openbind_a71ev2a_c1_scaffold_products.sdf', '/opt/xchem-fragalysis-2/maxwin/openbind-hippo/a71ev2a/cycle_01/bulkdock/openbind_a71ev2a_c1_scaffolds.sdf']

>  <fragmenstein_runtime>  (780) 
12.048962

$$$$
C7182-P151
     RDKit          3D

 22 23  0  0  0  0  0  0  0  0999 V2000
    9.4339    9.9170   23.4953 C   0  0  0  0  0  0  0  0  0  0  0  0
    8.4873   10.4921   24.4828 C   0  0  0  0  0  0  0  0  0  0  0  0
    7.5950    9.8397   25.3025 C   0  0  0  0  0  0  0  0  0  0  0  0
    6.9591   10.8328   26.0616 C   0  0  0  0  0  0  0  0  0  0  0  0
    5.9313   10.5830   26.9198 N   0  0  0  0  0  0  0  0  0  0  0  0
    5.3112   11.4697   28.0380 C   0  0  0  0  0  0  0  0  0  0  0  0
    5.6375   12.5150   28.4423 O   0  0  0  0  0  0  0  0  0  0  0  0
    4.0438   10.7321   28.4858 C   0  0  0  0  0  0  0  0  0  0  0  0
    3.3699   11.1589   29.7983 C   0  0  1  0  0  0  0  0  0  0  0  0
    3.2667   12.6703   29.9985 C   0  0  0  0  0  0  0  0  0  0  0  0
    1.9610   10.5713   29.8392 C   0  0  0  0  0  0  0  0  0  0  0  0
    1.3782   10.7672   31.0406 F   0  0  0  0  0  0  0  0  0  0  0  0
    1.9725    9.2392   29.6086 F   0  0  0  0  0  0  0  0  0  0  0  0
    1.1670   11.1267   28.8956 F   0  0  0  0  0  0  0  0  0  0  0  0
    7.4652   12.0330   25.7946 N   0  0  0  0  0  0  0  0  0  0  0  0
    8.2951   11.8290   24.7461 N   0  0  0  0  0  0  0  0  0  0  0  0
    8.8599   12.9627   24.0177 C   0  0  0  0  0  0  0  0  0  0  0  0
   10.2179   13.3823   24.5898 C   0  0  0  0  0  0  0  0  0  0  0  0
   10.8479   14.4952   23.7569 C   0  0  0  0  0  0  0  0  0  0  0  0
    9.9081   15.6868   23.6095 C   0  0  0  0  0  0  0  0  0  0  0  0
    8.5412   15.2797   23.0647 C   0  0  0  0  0  0  0  0  0  0  0  0
    7.9095   14.1657   23.8990 C   0  0  0  0  0  0  0  0  0  0  0  0
  1  2  1  0
  2  3  2  0
  3  4  1  0
  4  5  1  0
  5  6  1  0
  6  7  2  0
  6  8  1  0
  8  9  1  0
  9 10  1  6
  9 11  1  0
 11 12  1  0
 11 13  1  0
 11 14  1  0
  4 15  2  0
 15 16  1  0
 16 17  1  0
 17 18  1  0
 18 19  1  0
 19 20  1  0
 20 21  1  0
 21 22  1  0
 16  2  1  0
 22 17  1  0
M  END
>  <ref_pdb>  (781) 
A3194a

>  <subsites>  (781) 
1 - Active Site

>  <HIPPO Compound ID>  (781) 
26592

>  <energy_score>  (781) 
-9.319512

>  <fragmenstein_mode>  (781) 
expansion

>  <scratch_subdir>  (781) 
/opt/xchem-fragalysis-2/maxwin/BulkDock/SCRATCH/512206/C7182-P151

>  <smiles>  (781) 
Cc1cc(NC(=O)C[C@@H](C)C(F)(F)F)nn1C1CCCCC1

>  <alias>  (781) 
C7182-P151

>  <ref_mols>  (781) 
A1445a,A3194a

>  <inspiration_score>  (781) 
None

>  <tags>  (781) 
BulkDock Fragalysis export,fragmenstein_placed,openbind_a71ev2a_c1_knitwork_impure,openbind_a71ev2a_c1_scaffolds

>  <fragmenstein_outcome>  (781) 
acceptable

>  <fragmenstein_error>  (781) 


>  <distance_score>  (781) 
0.912334

>  <inchikey>  (781) 
ZHAMFANYGUBSHC-UHFFFAOYSA-N

>  <name>  (781) 
C7182-P151

>  <HIPPO Pose ID>  (781) 
404064

>  <Energy>  (781) 
-12.680319

>  <exports>  (781) 
['/opt/xchem-fragalysis-2/maxwin/BulkDock/OUTPUTS/openbind_a71ev2a_c1_knitwork_impure_165VXJF.sdf', '/opt/xchem-fragalysis-2/maxwin/BulkDock/OUTPUTS/openbind_a71ev2a_c1_knitwork_impure_1B07QS4.sdf', '/opt/xchem-fragalysis-2/maxwin/BulkDock/OUTPUTS/openbind_a71ev2a_c1_knitwork_impure_1B07X5R.sdf', '/opt/xchem-fragalysis-2/maxwin/openbind-hippo/a71ev2a/openbind_a71ev2a_c1_scaffold_products.sdf', '/opt/xchem-fragalysis-2/maxwin/openbind-hippo/a71ev2a/cycle_01/bulkdock/openbind_a71ev2a_c1_scaffold_products.sdf', '/opt/xchem-fragalysis-2/maxwin/openbind-hippo/a71ev2a/cycle_01/bulkdock/openbind_a71ev2a_c1_scaffolds.sdf']

>  <fragmenstein_runtime>  (781) 
14.343172

$$$$
C31976-P405
     RDKit          3D

 16 17  0  0  0  0  0  0  0  0999 V2000
    7.5442   14.4056   25.0768 C   0  0  0  0  0  0  0  0  0  0  0  0
    8.6812   13.4666   24.6443 C   0  0  0  0  0  0  0  0  0  0  0  0
    9.7970   13.4527   25.6980 C   0  0  0  0  0  0  0  0  0  0  0  0
    9.2062   13.8615   23.2410 C   0  0  0  0  0  0  0  0  0  0  0  0
    9.5789   15.2850   23.0819 N   0  0  0  0  0  0  0  0  0  0  0  0
   10.7584   15.8155   23.8076 C   0  0  0  0  0  0  0  0  0  0  0  0
   12.0165   15.4451   23.0280 C   0  0  0  0  0  0  0  0  0  0  0  0
   11.4667   15.5634   21.6634 C   0  0  0  0  0  0  0  0  0  0  0  0
   12.1262   15.6902   20.4582 C   0  0  0  0  0  0  0  0  0  0  0  0
   11.3868   15.6758   19.2836 C   0  0  0  0  0  0  0  0  0  0  0  0
   10.0036   15.5859   19.3500 C   0  0  0  0  0  0  0  0  0  0  0  0
    9.3432   15.4501   20.5801 C   0  0  0  0  0  0  0  0  0  0  0  0
   10.0826   15.4426   21.7348 C   0  0  0  0  0  0  0  0  0  0  0  0
    8.2568   11.9905   24.5196 C   0  0  0  0  0  0  0  0  0  0  0  0
    8.9233   11.2012   23.8502 O   0  0  0  0  0  0  0  0  0  0  0  0
    6.9089   11.4977   25.5063 Cl  0  0  0  0  0  0  0  0  0  0  0  0
  1  2  1  0
  2  3  1  0
  2  4  1  0
  4  5  1  0
  5  6  1  0
  6  7  1  0
  7  8  1  0
  8  9  2  0
  9 10  1  0
 10 11  2  0
 11 12  1  0
 12 13  2  0
  2 14  1  0
 14 15  2  0
 14 16  1  0
 13  5  1  0
 13  8  1  0
M  END
>  <ref_pdb>  (782) 
A4570a

>  <subsites>  (782) 
1 - Active Site

>  <HIPPO Compound ID>  (782) 
8054

>  <energy_score>  (782) 
-18.744095

>  <fragmenstein_mode>  (782) 
expansion

>  <scratch_subdir>  (782) 
/opt/xchem-fragalysis-2/maxwin/BulkDock/SCRATCH/512206/C31976-P405

>  <smiles>  (782) 
CC(C)(CN1CCc2ccccc21)C(=O)Cl

>  <alias>  (782) 
C31976-P405

>  <ref_mols>  (782) 
A1778a,A4570a

>  <inspiration_score>  (782) 
None

>  <tags>  (782) 
BulkDock Fragalysis export,fragmenstein_placed,openbind_a71ev2a_c1_knitwork_impure,openbind_a71ev2a_c1_scaffolds

>  <fragmenstein_outcome>  (782) 
acceptable

>  <fragmenstein_error>  (782) 


>  <distance_score>  (782) 
0.976163

>  <inchikey>  (782) 
IXMDEIPJYFZEHY-UHFFFAOYSA-N

>  <name>  (782) 
C31976-P405

>  <HIPPO Pose ID>  (782) 
405128

>  <Energy>  (782) 
47.294968

>  <exports>  (782) 
['/opt/xchem-fragalysis-2/maxwin/BulkDock/OUTPUTS/openbind_a71ev2a_c1_knitwork_impure_165VXJF.sdf', '/opt/xchem-fragalysis-2/maxwin/BulkDock/OUTPUTS/openbind_a71ev2a_c1_knitwork_impure_1B07QS4.sdf', '/opt/xchem-fragalysis-2/maxwin/BulkDock/OUTPUTS/openbind_a71ev2a_c1_knitwork_impure_1B07X5R.sdf', '/opt/xchem-fragalysis-2/maxwin/openbind-hippo/a71ev2a/openbind_a71ev2a_c1_scaffold_products.sdf', '/opt/xchem-fragalysis-2/maxwin/openbind-hippo/a71ev2a/cycle_01/bulkdock/openbind_a71ev2a_c1_scaffold_products.sdf', '/opt/xchem-fragalysis-2/maxwin/openbind-hippo/a71ev2a/cycle_01/bulkdock/openbind_a71ev2a_c1_scaffolds.sdf']

>  <fragmenstein_runtime>  (782) 
3.743696

$$$$
C4749-P199
     RDKit          3D

 11 12  0  0  0  0  0  0  0  0999 V2000
    7.2720   10.6773   25.5072 C   0  0  0  0  0  0  0  0  0  0  0  0
    7.8426    9.5851   25.0064 N   0  0  0  0  0  0  0  0  0  0  0  0
    8.7931   10.0605   24.1854 N   0  0  0  0  0  0  0  0  0  0  0  0
    8.8371   11.4284   24.1661 C   0  0  0  0  0  0  0  0  0  0  0  0
    7.8505   11.8765   25.0282 C   0  0  0  0  0  0  0  0  0  0  0  0
    7.5143   13.2965   25.3952 C   0  0  1  0  0  0  0  0  0  0  0  0
    7.1368   14.1733   24.1765 C   0  0  0  0  0  0  0  0  0  0  0  0
    6.8640   15.5687   24.5298 N   0  0  0  0  0  0  0  0  0  0  0  0
    5.7016   15.7464   25.4066 C   0  0  0  0  0  0  0  0  0  0  0  0
    5.0576   14.4811   25.9859 C   0  0  0  0  0  0  0  0  0  0  0  0
    6.2637   13.3574   26.7586 S   0  0  0  0  0  0  0  0  0  0  0  0
  1  2  2  0
  2  3  1  0
  3  4  1  0
  4  5  2  0
  6  5  1  6
  6  7  1  0
  7  8  1  0
  8  9  1  0
  9 10  1  0
 10 11  1  0
  5  1  1  0
 11  6  1  0
M  END
>  <ref_pdb>  (783) 
A3621a

>  <subsites>  (783) 
1 - Active Site

>  <HIPPO Compound ID>  (783) 
5397

>  <energy_score>  (783) 
-18.387495

>  <fragmenstein_mode>  (783) 
expansion

>  <scratch_subdir>  (783) 
/opt/xchem-fragalysis-2/maxwin/BulkDock/SCRATCH/512206/C4749-P199

>  <smiles>  (783) 
c1n[nH]cc1[C@H]1CNCCS1

>  <alias>  (783) 
C4749-P199

>  <ref_mols>  (783) 
A0556a,A3621a

>  <inspiration_score>  (783) 
None

>  <tags>  (783) 
BulkDock Fragalysis export,fragmenstein_placed,openbind_a71ev2a_c1_knitwork_impure,openbind_a71ev2a_c1_scaffolds

>  <fragmenstein_outcome>  (783) 
acceptable

>  <fragmenstein_error>  (783) 


>  <distance_score>  (783) 
0.832441

>  <inchikey>  (783) 
ULBBXWVIXXPSOD-UHFFFAOYSA-N

>  <name>  (783) 
C4749-P199

>  <HIPPO Pose ID>  (783) 
406181

>  <Energy>  (783) 
73.08831

>  <exports>  (783) 
['/opt/xchem-fragalysis-2/maxwin/BulkDock/OUTPUTS/openbind_a71ev2a_c1_knitwork_impure_165VXJF.sdf', '/opt/xchem-fragalysis-2/maxwin/BulkDock/OUTPUTS/openbind_a71ev2a_c1_knitwork_impure_1B07QS4.sdf', '/opt/xchem-fragalysis-2/maxwin/BulkDock/OUTPUTS/openbind_a71ev2a_c1_knitwork_impure_1B07X5R.sdf', '/opt/xchem-fragalysis-2/maxwin/openbind-hippo/a71ev2a/openbind_a71ev2a_c1_scaffold_products.sdf', '/opt/xchem-fragalysis-2/maxwin/openbind-hippo/a71ev2a/cycle_01/bulkdock/openbind_a71ev2a_c1_scaffold_products.sdf', '/opt/xchem-fragalysis-2/maxwin/openbind-hippo/a71ev2a/cycle_01/bulkdock/openbind_a71ev2a_c1_scaffolds.sdf']

>  <fragmenstein_runtime>  (783) 
1.056654

$$$$
C4755-P199
     RDKit          3D

 10 11  0  0  0  0  0  0  0  0999 V2000
    7.2116   10.6082   25.5064 C   0  0  0  0  0  0  0  0  0  0  0  0
    7.9208    9.5950   25.0182 N   0  0  0  0  0  0  0  0  0  0  0  0
    8.8214   10.1839   24.2151 N   0  0  0  0  0  0  0  0  0  0  0  0
    8.7073   11.5468   24.2033 C   0  0  0  0  0  0  0  0  0  0  0  0
    7.6471   11.8701   25.0351 C   0  0  0  0  0  0  0  0  0  0  0  0
    7.0251   13.1978   25.3173 C   0  0  2  0  0  0  0  0  0  0  0  0
    8.0555   14.2410   25.4065 N   0  0  0  0  0  0  0  0  0  0  0  0
    7.3957   15.3832   26.0594 C   0  0  0  0  0  0  0  0  0  0  0  0
    6.7129   14.8893   27.3270 C   0  0  0  0  0  0  0  0  0  0  0  0
    6.1365   13.2312   26.9063 S   0  0  0  0  0  0  0  0  0  0  0  0
  1  2  2  0
  2  3  1  0
  3  4  1  0
  4  5  2  0
  6  5  1  1
  6  7  1  0
  7  8  1  0
  8  9  1  0
  9 10  1  0
  5  1  1  0
 10  6  1  0
M  END
>  <ref_pdb>  (784) 
A3621a

>  <subsites>  (784) 
1 - Active Site

>  <HIPPO Compound ID>  (784) 
21294

>  <energy_score>  (784) 
-15.329963

>  <fragmenstein_mode>  (784) 
expansion

>  <scratch_subdir>  (784) 
/opt/xchem-fragalysis-2/maxwin/BulkDock/SCRATCH/512206/C4755-P199

>  <smiles>  (784) 
c1n[nH]cc1[C@@H]1NCCS1

>  <alias>  (784) 
C4755-P199

>  <ref_mols>  (784) 
A0556a,A3621a

>  <inspiration_score>  (784) 
None

>  <tags>  (784) 
BulkDock Fragalysis export,fragmenstein_placed,openbind_a71ev2a_c1_knitwork_impure,openbind_a71ev2a_c1_scaffolds

>  <fragmenstein_outcome>  (784) 
acceptable

>  <fragmenstein_error>  (784) 


>  <distance_score>  (784) 
0.755422

>  <inchikey>  (784) 
UGSIBURWRIDDTK-UHFFFAOYSA-N

>  <name>  (784) 
C4755-P199

>  <HIPPO Pose ID>  (784) 
406187

>  <Energy>  (784) 
-1.460474

>  <exports>  (784) 
['/opt/xchem-fragalysis-2/maxwin/BulkDock/OUTPUTS/openbind_a71ev2a_c1_knitwork_impure_165VXJF.sdf', '/opt/xchem-fragalysis-2/maxwin/BulkDock/OUTPUTS/openbind_a71ev2a_c1_knitwork_impure_1B07QS4.sdf', '/opt/xchem-fragalysis-2/maxwin/BulkDock/OUTPUTS/openbind_a71ev2a_c1_knitwork_impure_1B07X5R.sdf', '/opt/xchem-fragalysis-2/maxwin/openbind-hippo/a71ev2a/openbind_a71ev2a_c1_scaffold_products.sdf', '/opt/xchem-fragalysis-2/maxwin/openbind-hippo/a71ev2a/cycle_01/bulkdock/openbind_a71ev2a_c1_scaffold_products.sdf', '/opt/xchem-fragalysis-2/maxwin/openbind-hippo/a71ev2a/cycle_01/bulkdock/openbind_a71ev2a_c1_scaffolds.sdf']

>  <fragmenstein_runtime>  (784) 
0.747694

$$$$
C3806-P199
     RDKit          3D

 11 12  0  0  0  0  0  0  0  0999 V2000
    7.2287   10.7194   25.5434 C   0  0  0  0  0  0  0  0  0  0  0  0
    7.8669    9.6272   25.1363 N   0  0  0  0  0  0  0  0  0  0  0  0
    8.7705   10.0840   24.2531 N   0  0  0  0  0  0  0  0  0  0  0  0
    8.7121   11.4421   24.0965 C   0  0  0  0  0  0  0  0  0  0  0  0
    7.6864   11.8945   24.9071 C   0  0  0  0  0  0  0  0  0  0  0  0
    7.1481   13.2962   25.0312 C   0  0  1  0  0  0  0  0  0  0  0  0
    5.9740   13.4257   26.0278 C   0  0  0  0  0  0  0  0  0  0  0  0
    6.4713   13.8503   27.4047 C   0  0  0  0  0  0  0  0  0  0  0  0
    7.1971   15.1993   27.3444 C   0  0  0  0  0  0  0  0  0  0  0  0
    7.8029   15.5133   26.0460 N   0  0  0  0  0  0  0  0  0  0  0  0
    8.2744   14.3029   25.3659 C   0  0  0  0  0  0  0  0  0  0  0  0
  1  2  2  0
  2  3  1  0
  3  4  1  0
  4  5  2  0
  6  5  1  1
  6  7  1  0
  7  8  1  0
  8  9  1  0
  9 10  1  0
 10 11  1  0
  5  1  1  0
 11  6  1  0
M  END
>  <ref_pdb>  (785) 
A3621a

>  <subsites>  (785) 
1 - Active Site

>  <HIPPO Compound ID>  (785) 
8866

>  <energy_score>  (785) 
-13.411915

>  <fragmenstein_mode>  (785) 
expansion

>  <scratch_subdir>  (785) 
/opt/xchem-fragalysis-2/maxwin/BulkDock/SCRATCH/512206/C3806-P199

>  <smiles>  (785) 
c1n[nH]cc1[C@H]1CCCNC1

>  <alias>  (785) 
C3806-P199

>  <ref_mols>  (785) 
A0556a,A3621a

>  <inspiration_score>  (785) 
None

>  <tags>  (785) 
BulkDock Fragalysis export,fragmenstein_placed,openbind_a71ev2a_c1_knitwork_impure,openbind_a71ev2a_c1_scaffolds

>  <fragmenstein_outcome>  (785) 
acceptable

>  <fragmenstein_error>  (785) 


>  <distance_score>  (785) 
0.834912

>  <inchikey>  (785) 
SATYTGVRESMOJT-UHFFFAOYSA-N

>  <name>  (785) 
C3806-P199

>  <HIPPO Pose ID>  (785) 
406192

>  <Energy>  (785) 
29.419809

>  <exports>  (785) 
['/opt/xchem-fragalysis-2/maxwin/BulkDock/OUTPUTS/openbind_a71ev2a_c1_knitwork_impure_165VXJF.sdf', '/opt/xchem-fragalysis-2/maxwin/BulkDock/OUTPUTS/openbind_a71ev2a_c1_knitwork_impure_1B07QS4.sdf', '/opt/xchem-fragalysis-2/maxwin/BulkDock/OUTPUTS/openbind_a71ev2a_c1_knitwork_impure_1B07X5R.sdf', '/opt/xchem-fragalysis-2/maxwin/openbind-hippo/a71ev2a/openbind_a71ev2a_c1_scaffold_products.sdf', '/opt/xchem-fragalysis-2/maxwin/openbind-hippo/a71ev2a/cycle_01/bulkdock/openbind_a71ev2a_c1_scaffold_products.sdf', '/opt/xchem-fragalysis-2/maxwin/openbind-hippo/a71ev2a/cycle_01/bulkdock/openbind_a71ev2a_c1_scaffolds.sdf']

>  <fragmenstein_runtime>  (785) 
0.790322

$$$$
C10627-P405
     RDKit          3D

 13 13  0  0  0  0  0  0  0  0999 V2000
    7.3323   14.1103   25.5543 C   0  0  0  0  0  0  0  0  0  0  0  0
    8.4573   13.9656   24.5389 C   0  0  0  0  0  0  0  0  0  0  0  0
    8.2220   14.8414   23.2998 C   0  0  1  0  0  0  0  0  0  0  0  0
    9.4578   14.8731   22.4076 C   0  0  0  0  0  0  0  0  0  0  0  0
    7.0402   14.3349   22.4796 C   0  0  0  0  0  0  0  0  0  0  0  0
    6.9134   13.1313   22.2409 O   0  0  0  0  0  0  0  0  0  0  0  0
    6.0803   15.3541   21.9112 C   0  0  0  0  0  0  0  0  0  0  0  0
    4.3947   15.0184   22.4574 S   0  0  0  0  0  0  0  0  0  0  0  0
    3.6914   14.5639   20.9369 C   0  0  0  0  0  0  0  0  0  0  0  0
    2.7581   15.2859   20.3492 N   0  0  0  0  0  0  0  0  0  0  0  0
    2.4935   14.5955   19.1920 C   0  0  0  0  0  0  0  0  0  0  0  0
    3.3222   13.5080   19.0950 C   0  0  0  0  0  0  0  0  0  0  0  0
    4.1061   13.4826   20.2072 O   0  0  0  0  0  0  0  0  0  0  0  0
  1  2  1  0
  2  3  1  0
  3  4  1  6
  3  5  1  0
  5  6  2  0
  5  7  1  0
  7  8  1  0
  8  9  1  0
  9 10  2  0
 10 11  1  0
 11 12  2  0
 12 13  1  0
 13  9  1  0
M  END
>  <ref_pdb>  (786) 
A4570a

>  <subsites>  (786) 
1 - Active Site

>  <HIPPO Compound ID>  (786) 
722

>  <energy_score>  (786) 
-26.872895

>  <fragmenstein_mode>  (786) 
expansion

>  <scratch_subdir>  (786) 
/opt/xchem-fragalysis-2/maxwin/BulkDock/SCRATCH/512206/C10627-P405

>  <smiles>  (786) 
CC[C@@H](C)C(=O)CSc1ncco1

>  <alias>  (786) 
C10627-P405

>  <ref_mols>  (786) 
A3623a,A4570a

>  <inspiration_score>  (786) 
None

>  <tags>  (786) 
BulkDock Fragalysis export,fragmenstein_placed,openbind_a71ev2a_c1_knitwork_impure,openbind_a71ev2a_c1_scaffolds

>  <fragmenstein_outcome>  (786) 
acceptable

>  <fragmenstein_error>  (786) 


>  <distance_score>  (786) 
0.840528

>  <inchikey>  (786) 
AXNCOQBNSRCGQR-UHFFFAOYSA-N

>  <name>  (786) 
C10627-P405

>  <HIPPO Pose ID>  (786) 
406310

>  <Energy>  (786) 
6.126977

>  <exports>  (786) 
['/opt/xchem-fragalysis-2/maxwin/BulkDock/OUTPUTS/openbind_a71ev2a_c1_knitwork_impure_165VXJF.sdf', '/opt/xchem-fragalysis-2/maxwin/BulkDock/OUTPUTS/openbind_a71ev2a_c1_knitwork_impure_1B07QS4.sdf', '/opt/xchem-fragalysis-2/maxwin/BulkDock/OUTPUTS/openbind_a71ev2a_c1_knitwork_impure_1B07X5R.sdf', '/opt/xchem-fragalysis-2/maxwin/openbind-hippo/a71ev2a/openbind_a71ev2a_c1_scaffold_products.sdf', '/opt/xchem-fragalysis-2/maxwin/openbind-hippo/a71ev2a/cycle_01/bulkdock/openbind_a71ev2a_c1_scaffold_products.sdf', '/opt/xchem-fragalysis-2/maxwin/openbind-hippo/a71ev2a/cycle_01/bulkdock/openbind_a71ev2a_c1_scaffolds.sdf']

>  <fragmenstein_runtime>  (786) 
1.300006

$$$$
C10635-P405
     RDKit          3D

 14 14  0  0  0  0  0  0  0  0999 V2000
    8.3434   16.5177   22.0750 C   0  0  0  0  0  0  0  0  0  0  0  0
    7.3900   15.3287   22.0282 C   0  0  2  0  0  0  0  0  0  0  0  0
    5.9816   15.8044   22.4173 C   0  0  0  0  0  0  0  0  0  0  0  0
    4.9473   14.7062   22.4114 C   0  0  0  0  0  0  0  0  0  0  0  0
    4.8799   13.9965   23.4164 O   0  0  0  0  0  0  0  0  0  0  0  0
    4.1361   14.5737   21.2140 C   0  0  0  0  0  0  0  0  0  0  0  0
    3.5695   15.5661   20.5421 N   0  0  0  0  0  0  0  0  0  0  0  0
    2.8877   14.9159   19.5354 C   0  0  0  0  0  0  0  0  0  0  0  0
    3.1374   13.5694   19.5857 C   0  0  0  0  0  0  0  0  0  0  0  0
    3.9410   13.3367   20.6580 O   0  0  0  0  0  0  0  0  0  0  0  0
    7.9624   14.2039   22.8832 C   0  0  0  0  0  0  0  0  0  0  0  0
    7.8799   14.4280   24.2069 F   0  0  0  0  0  0  0  0  0  0  0  0
    9.2712   14.0164   22.5917 F   0  0  0  0  0  0  0  0  0  0  0  0
    7.3318   13.0429   22.5988 F   0  0  0  0  0  0  0  0  0  0  0  0
  2  1  1  1
  2  3  1  0
  3  4  1  0
  4  5  2  0
  4  6  1  0
  6  7  2  0
  7  8  1  0
  8  9  2  0
  9 10  1  0
  2 11  1  0
 11 12  1  0
 11 13  1  0
 11 14  1  0
 10  6  1  0
M  END
>  <ref_pdb>  (787) 
A4570a

>  <subsites>  (787) 
1 - Active Site

>  <HIPPO Compound ID>  (787) 
44440

>  <energy_score>  (787) 
-20.312107

>  <fragmenstein_mode>  (787) 
expansion

>  <scratch_subdir>  (787) 
/opt/xchem-fragalysis-2/maxwin/BulkDock/SCRATCH/512206/C10635-P405

>  <smiles>  (787) 
C[C@H](CC(=O)c1ncco1)C(F)(F)F

>  <alias>  (787) 
C10635-P405

>  <ref_mols>  (787) 
A3623a,A4570a

>  <inspiration_score>  (787) 
None

>  <tags>  (787) 
BulkDock Fragalysis export,fragmenstein_placed,openbind_a71ev2a_c1_knitwork_impure,openbind_a71ev2a_c1_scaffolds

>  <fragmenstein_outcome>  (787) 
acceptable

>  <fragmenstein_error>  (787) 


>  <distance_score>  (787) 
0.999233

>  <inchikey>  (787) 
RVXGWTPTIOJIRD-UHFFFAOYSA-N

>  <name>  (787) 
C10635-P405

>  <HIPPO Pose ID>  (787) 
406311

>  <Energy>  (787) 
42.336195

>  <exports>  (787) 
['/opt/xchem-fragalysis-2/maxwin/BulkDock/OUTPUTS/openbind_a71ev2a_c1_knitwork_impure_165VXJF.sdf', '/opt/xchem-fragalysis-2/maxwin/BulkDock/OUTPUTS/openbind_a71ev2a_c1_knitwork_impure_1B07QS4.sdf', '/opt/xchem-fragalysis-2/maxwin/BulkDock/OUTPUTS/openbind_a71ev2a_c1_knitwork_impure_1B07X5R.sdf', '/opt/xchem-fragalysis-2/maxwin/openbind-hippo/a71ev2a/openbind_a71ev2a_c1_scaffold_products.sdf', '/opt/xchem-fragalysis-2/maxwin/openbind-hippo/a71ev2a/cycle_01/bulkdock/openbind_a71ev2a_c1_scaffold_products.sdf', '/opt/xchem-fragalysis-2/maxwin/openbind-hippo/a71ev2a/cycle_01/bulkdock/openbind_a71ev2a_c1_scaffolds.sdf']

>  <fragmenstein_runtime>  (787) 
1.571079

$$$$
C10655-P405
     RDKit          3D

 12 12  0  0  0  0  0  0  0  0999 V2000
    7.6771   14.2417   24.6088 C   0  0  0  0  0  0  0  0  0  0  0  0
    7.9281   14.6283   23.1492 C   0  0  0  0  0  0  0  0  0  0  0  0
    9.0813   13.7937   22.6139 C   0  0  0  0  0  0  0  0  0  0  0  0
    6.6832   14.4170   22.2745 C   0  0  0  0  0  0  0  0  0  0  0  0
    5.5686   15.4163   22.5149 C   0  0  0  0  0  0  0  0  0  0  0  0
    5.8103   16.6008   22.7466 O   0  0  0  0  0  0  0  0  0  0  0  0
    4.1505   14.9078   22.4742 C   0  0  0  0  0  0  0  0  0  0  0  0
    3.7083   14.6812   21.0854 C   0  0  0  0  0  0  0  0  0  0  0  0
    2.8202   15.3694   20.3952 N   0  0  0  0  0  0  0  0  0  0  0  0
    2.6810   14.6463   19.2365 C   0  0  0  0  0  0  0  0  0  0  0  0
    3.5349   13.5740   19.2458 C   0  0  0  0  0  0  0  0  0  0  0  0
    4.2022   13.5808   20.4342 O   0  0  0  0  0  0  0  0  0  0  0  0
  1  2  1  0
  2  3  1  0
  2  4  1  0
  4  5  1  0
  5  6  2  0
  5  7  1  0
  7  8  1  0
  8  9  2  0
  9 10  1  0
 10 11  2  0
 11 12  1  0
 12  8  1  0
M  END
>  <ref_pdb>  (788) 
A4570a

>  <subsites>  (788) 
1 - Active Site

>  <HIPPO Compound ID>  (788) 
31867

>  <energy_score>  (788) 
-28.721541

>  <fragmenstein_mode>  (788) 
expansion

>  <scratch_subdir>  (788) 
/opt/xchem-fragalysis-2/maxwin/BulkDock/SCRATCH/512206/C10655-P405

>  <smiles>  (788) 
CC(C)CC(=O)Cc1ncco1

>  <alias>  (788) 
C10655-P405

>  <ref_mols>  (788) 
A3623a,A4570a

>  <inspiration_score>  (788) 
None

>  <tags>  (788) 
BulkDock Fragalysis export,fragmenstein_placed,openbind_a71ev2a_c1_knitwork_impure,openbind_a71ev2a_c1_scaffolds

>  <fragmenstein_outcome>  (788) 
acceptable

>  <fragmenstein_error>  (788) 


>  <distance_score>  (788) 
0.962331

>  <inchikey>  (788) 
YZDMAFVUISHMFV-UHFFFAOYSA-N

>  <name>  (788) 
C10655-P405

>  <HIPPO Pose ID>  (788) 
406319

>  <Energy>  (788) 
11.265521

>  <exports>  (788) 
['/opt/xchem-fragalysis-2/maxwin/BulkDock/OUTPUTS/openbind_a71ev2a_c1_knitwork_impure_165VXJF.sdf', '/opt/xchem-fragalysis-2/maxwin/BulkDock/OUTPUTS/openbind_a71ev2a_c1_knitwork_impure_1B07QS4.sdf', '/opt/xchem-fragalysis-2/maxwin/BulkDock/OUTPUTS/openbind_a71ev2a_c1_knitwork_impure_1B07X5R.sdf', '/opt/xchem-fragalysis-2/maxwin/openbind-hippo/a71ev2a/openbind_a71ev2a_c1_scaffold_products.sdf', '/opt/xchem-fragalysis-2/maxwin/openbind-hippo/a71ev2a/cycle_01/bulkdock/openbind_a71ev2a_c1_scaffold_products.sdf', '/opt/xchem-fragalysis-2/maxwin/openbind-hippo/a71ev2a/cycle_01/bulkdock/openbind_a71ev2a_c1_scaffolds.sdf']

>  <fragmenstein_runtime>  (788) 
0.934139

$$$$
C7352-P183
     RDKit          3D

 18 18  0  0  0  0  0  0  0  0999 V2000
    8.7680    8.6284   23.7217 C   0  0  0  0  0  0  0  0  0  0  0  0
    9.1735   10.0794   23.7665 C   0  0  0  0  0  0  0  0  0  0  0  0
    8.3239   11.0115   24.6796 C   0  0  0  0  0  0  0  0  0  0  0  0
    8.8819   12.4261   24.8704 C   0  0  0  0  0  0  0  0  0  0  0  0
   10.1316   12.6846   24.4585 C   0  0  0  0  0  0  0  0  0  0  0  0
   10.9176   13.9259   24.4890 C   0  0  0  0  0  0  0  0  0  0  0  0
   11.1163   14.6165   25.3994 O   0  0  0  0  0  0  0  0  0  0  0  0
   11.4614   13.9861   23.0604 N   0  0  0  0  0  0  0  0  0  0  0  0
   12.2848   14.9548   22.4261 C   0  0  0  0  0  0  0  0  0  0  0  0
   12.2040   14.7713   20.9289 C   0  0  0  0  0  0  0  0  0  0  0  0
   10.9468   15.3029   20.3604 C   0  0  0  0  0  0  0  0  0  0  0  0
   10.5637   15.3518   19.0459 C   0  0  0  0  0  0  0  0  0  0  0  0
    9.4664   16.1501   18.9599 O   0  0  0  0  0  0  0  0  0  0  0  0
    9.2267   16.5267   20.2465 C   0  0  0  0  0  0  0  0  0  0  0  0
   10.0409   15.9973   21.1246 N   0  0  0  0  0  0  0  0  0  0  0  0
    8.0354   13.4812   25.5730 C   0  0  0  0  0  0  0  0  0  0  0  0
    6.8969   14.1210   24.7796 C   0  0  0  0  0  0  0  0  0  0  0  0
    7.2350   14.4670   23.3449 C   0  0  0  0  0  0  0  0  0  0  0  0
  1  2  1  0
  2  3  1  0
  3  4  1  0
  4  5  2  3
  5  6  1  0
  6  7  2  0
  6  8  1  0
  8  9  1  0
  9 10  1  0
 10 11  1  0
 11 12  2  0
 12 13  1  0
 13 14  1  0
 14 15  2  0
  4 16  1  0
 16 17  1  0
 17 18  1  0
 15 11  1  0
M  END
>  <ref_pdb>  (789) 
A3436a

>  <subsites>  (789) 
1 - Active Site

>  <HIPPO Compound ID>  (789) 
8059

>  <energy_score>  (789) 
-24.772783

>  <fragmenstein_mode>  (789) 
expansion

>  <scratch_subdir>  (789) 
/opt/xchem-fragalysis-2/maxwin/BulkDock/SCRATCH/512206/C7352-P183

>  <smiles>  (789) 
CCCC(=CC(=O)NCCc1cocn1)CCC

>  <alias>  (789) 
C7352-P183

>  <ref_mols>  (789) 
A3623a,A3436a

>  <inspiration_score>  (789) 
None

>  <tags>  (789) 
BulkDock Fragalysis export,fragmenstein_placed,openbind_a71ev2a_c1_knitwork_impure,openbind_a71ev2a_c1_scaffolds

>  <fragmenstein_outcome>  (789) 
acceptable

>  <fragmenstein_error>  (789) 


>  <distance_score>  (789) 
0.99731

>  <inchikey>  (789) 
OEOCKEJGVCIITQ-UHFFFAOYSA-N

>  <name>  (789) 
C7352-P183

>  <HIPPO Pose ID>  (789) 
407047

>  <Energy>  (789) 
26.554264

>  <exports>  (789) 
['/opt/xchem-fragalysis-2/maxwin/BulkDock/OUTPUTS/openbind_a71ev2a_c1_knitwork_impure_165VXJF.sdf', '/opt/xchem-fragalysis-2/maxwin/BulkDock/OUTPUTS/openbind_a71ev2a_c1_knitwork_impure_1B07QS4.sdf', '/opt/xchem-fragalysis-2/maxwin/BulkDock/OUTPUTS/openbind_a71ev2a_c1_knitwork_impure_1B07X5R.sdf', '/opt/xchem-fragalysis-2/maxwin/openbind-hippo/a71ev2a/openbind_a71ev2a_c1_scaffold_products.sdf', '/opt/xchem-fragalysis-2/maxwin/openbind-hippo/a71ev2a/cycle_01/bulkdock/openbind_a71ev2a_c1_scaffold_products.sdf', '/opt/xchem-fragalysis-2/maxwin/openbind-hippo/a71ev2a/cycle_01/bulkdock/openbind_a71ev2a_c1_scaffolds.sdf']

>  <fragmenstein_runtime>  (789) 
4.702065

$$$$
C1602-P183
     RDKit          3D

 18 18  0  0  0  0  0  0  0  0999 V2000
    6.3903   14.9494   26.1066 C   0  0  0  0  0  0  0  0  0  0  0  0
    7.8264   14.6674   25.6710 C   0  0  0  0  0  0  0  0  0  0  0  0
    7.9573   14.1115   24.2277 C   0  0  1  0  0  0  0  0  0  0  0  0
    7.2579   15.0270   23.1593 C   0  0  0  0  0  0  0  0  0  0  0  0
    6.2383   14.1959   22.3783 C   0  0  0  0  0  0  0  0  0  0  0  0
    6.6020   13.2853   21.7464 O   0  0  0  0  0  0  0  0  0  0  0  0
    4.8090   14.7023   22.6739 N   0  0  0  0  0  0  0  0  0  0  0  0
    3.5190   14.1351   22.3301 C   0  0  1  0  0  0  0  0  0  0  0  0
    2.4189   14.5425   23.3010 C   0  0  0  0  0  0  0  0  0  0  0  0
    3.1426   14.3237   20.8974 C   0  0  0  0  0  0  0  0  0  0  0  0
    2.3573   15.2311   20.3417 N   0  0  0  0  0  0  0  0  0  0  0  0
    2.0960   14.7057   19.0945 C   0  0  0  0  0  0  0  0  0  0  0  0
    2.8246   13.5610   18.9016 C   0  0  0  0  0  0  0  0  0  0  0  0
    3.4970   13.2988   20.0525 O   0  0  0  0  0  0  0  0  0  0  0  0
    9.4168   13.5326   23.8615 C   0  0  0  0  0  0  0  0  0  0  0  0
    9.3169   11.9911   23.9135 C   0  0  0  0  0  0  0  0  0  0  0  0
   10.5453   13.9276   24.8363 C   0  0  0  0  0  0  0  0  0  0  0  0
    9.9357   13.9073   22.4604 C   0  0  0  0  0  0  0  0  0  0  0  0
  1  2  1  0
  3  2  1  1
  3  4  1  0
  4  5  1  0
  5  6  2  0
  5  7  1  0
  7  8  1  0
  8  9  1  1
  8 10  1  0
 10 11  2  0
 11 12  1  0
 12 13  2  0
 13 14  1  0
  3 15  1  0
 15 16  1  0
 15 17  1  0
 15 18  1  0
 14 10  1  0
M  END
>  <ref_pdb>  (790) 
A3436a

>  <subsites>  (790) 
1 - Active Site

>  <HIPPO Compound ID>  (790) 
1602

>  <energy_score>  (790) 
-20.886593

>  <fragmenstein_mode>  (790) 
expansion

>  <scratch_subdir>  (790) 
/opt/xchem-fragalysis-2/maxwin/BulkDock/SCRATCH/512206/C1602-P183

>  <smiles>  (790) 
CC[C@@H](CC(=O)N[C@@H](C)c1ncco1)C(C)(C)C

>  <alias>  (790) 
C1602-P183

>  <ref_mols>  (790) 
A3623a,A3436a

>  <inspiration_score>  (790) 
None

>  <tags>  (790) 
BulkDock Fragalysis export,fragmenstein_placed,openbind_a71ev2a_c1_knitwork_impure,openbind_a71ev2a_c1_scaffolds

>  <fragmenstein_outcome>  (790) 
acceptable

>  <fragmenstein_error>  (790) 


>  <distance_score>  (790) 
0.990604

>  <inchikey>  (790) 
WCJVNOFYGXYGFG-UHFFFAOYSA-N

>  <name>  (790) 
C1602-P183

>  <HIPPO Pose ID>  (790) 
407073

>  <Energy>  (790) 
56.683413

>  <exports>  (790) 
['/opt/xchem-fragalysis-2/maxwin/BulkDock/OUTPUTS/openbind_a71ev2a_c1_knitwork_impure_165VXJF.sdf', '/opt/xchem-fragalysis-2/maxwin/BulkDock/OUTPUTS/openbind_a71ev2a_c1_knitwork_impure_1B07QS4.sdf', '/opt/xchem-fragalysis-2/maxwin/BulkDock/OUTPUTS/openbind_a71ev2a_c1_knitwork_impure_1B07X5R.sdf', '/opt/xchem-fragalysis-2/maxwin/openbind-hippo/a71ev2a/openbind_a71ev2a_c1_scaffold_products.sdf', '/opt/xchem-fragalysis-2/maxwin/openbind-hippo/a71ev2a/cycle_01/bulkdock/openbind_a71ev2a_c1_scaffold_products.sdf', '/opt/xchem-fragalysis-2/maxwin/openbind-hippo/a71ev2a/cycle_01/bulkdock/openbind_a71ev2a_c1_scaffolds.sdf']

>  <fragmenstein_runtime>  (790) 
7.381926

$$$$
C2407-P186
     RDKit          3D

 13 13  0  0  0  0  0  0  0  0999 V2000
    7.9847    8.9155   24.9127 O   0  0  0  0  0  0  0  0  0  0  0  0
    8.8280    9.6116   24.3497 C   0  0  0  0  0  0  0  0  0  0  0  0
    8.7663   11.1335   24.3526 C   0  0  0  0  0  0  0  0  0  0  0  0
    7.9662   11.8339   25.4713 C   0  0  0  0  0  0  0  0  0  0  0  0
    6.6970   11.1109   25.9318 C   0  0  0  0  0  0  0  0  0  0  0  0
    5.8030   11.9213   26.8599 C   0  0  0  0  0  0  0  0  0  0  0  0
    5.5003   13.2265   26.3017 N   0  0  0  0  0  0  0  0  0  0  0  0
    6.7165   13.9807   26.0225 C   0  0  0  0  0  0  0  0  0  0  0  0
    7.6002   13.2554   25.0115 C   0  0  0  0  0  0  0  0  0  0  0  0
    9.9608    9.0242   23.5470 C   0  0  0  0  0  0  0  0  0  0  0  0
   11.1551    9.4197   24.0712 F   0  0  0  0  0  0  0  0  0  0  0  0
    9.9322    9.4559   22.2631 F   0  0  0  0  0  0  0  0  0  0  0  0
    9.9705    7.6714   23.5169 F   0  0  0  0  0  0  0  0  0  0  0  0
  1  2  2  0
  2  3  1  0
  3  4  1  0
  4  5  1  0
  5  6  1  0
  6  7  1  0
  7  8  1  0
  8  9  1  0
  2 10  1  0
 10 11  1  0
 10 12  1  0
 10 13  1  0
  9  4  1  0
M  END
>  <ref_pdb>  (791) 
A3483a

>  <subsites>  (791) 
1 - Active Site

>  <HIPPO Compound ID>  (791) 
2407

>  <energy_score>  (791) 
-12.170812

>  <fragmenstein_mode>  (791) 
expansion

>  <scratch_subdir>  (791) 
/opt/xchem-fragalysis-2/maxwin/BulkDock/SCRATCH/512206/C2407-P186

>  <smiles>  (791) 
O=C(CC1CCNCC1)C(F)(F)F

>  <alias>  (791) 
C2407-P186

>  <ref_mols>  (791) 
A3483a,A1779a

>  <inspiration_score>  (791) 
None

>  <tags>  (791) 
BulkDock Fragalysis export,fragmenstein_placed,openbind_a71ev2a_c1_knitwork_impure,openbind_a71ev2a_c1_scaffolds

>  <fragmenstein_outcome>  (791) 
acceptable

>  <fragmenstein_error>  (791) 


>  <distance_score>  (791) 
0.970498

>  <inchikey>  (791) 
ZHKWVPSCOFOVKQ-UHFFFAOYSA-N

>  <name>  (791) 
C2407-P186

>  <HIPPO Pose ID>  (791) 
407189

>  <Energy>  (791) 
52.298997

>  <exports>  (791) 
['/opt/xchem-fragalysis-2/maxwin/BulkDock/OUTPUTS/openbind_a71ev2a_c1_knitwork_impure_165VXJF.sdf', '/opt/xchem-fragalysis-2/maxwin/BulkDock/OUTPUTS/openbind_a71ev2a_c1_knitwork_impure_1B07QS4.sdf', '/opt/xchem-fragalysis-2/maxwin/BulkDock/OUTPUTS/openbind_a71ev2a_c1_knitwork_impure_1B07X5R.sdf', '/opt/xchem-fragalysis-2/maxwin/openbind-hippo/a71ev2a/openbind_a71ev2a_c1_scaffold_products.sdf', '/opt/xchem-fragalysis-2/maxwin/openbind-hippo/a71ev2a/cycle_01/bulkdock/openbind_a71ev2a_c1_scaffold_products.sdf', '/opt/xchem-fragalysis-2/maxwin/openbind-hippo/a71ev2a/cycle_01/bulkdock/openbind_a71ev2a_c1_scaffolds.sdf']

>  <fragmenstein_runtime>  (791) 
1.373081

$$$$
C8903-P303
     RDKit          3D

 19 21  0  0  0  0  0  0  0  0999 V2000
    9.8113   12.4566   24.9726 O   0  0  0  0  0  0  0  0  0  0  0  0
    8.7335   12.8463   24.5255 C   0  0  0  0  0  0  0  0  0  0  0  0
    8.5617   13.4874   23.1572 C   0  0  0  0  0  0  0  0  0  0  0  0
    9.4571   14.6346   22.9440 N   0  0  0  0  0  0  0  0  0  0  0  0
   10.8730   14.2886   23.1598 C   0  0  0  0  0  0  0  0  0  0  0  0
   11.8326   15.0688   22.2787 C   0  0  0  0  0  0  0  0  0  0  0  0
   11.5743   14.7304   20.8275 C   0  0  0  0  0  0  0  0  0  0  0  0
   10.0861   14.7099   20.5118 C   0  0  0  0  0  0  0  0  0  0  0  0
    9.2150   15.2633   21.6274 C   0  0  0  0  0  0  0  0  0  0  0  0
    7.5327   12.6097   25.3462 C   0  0  0  0  0  0  0  0  0  0  0  0
    7.3414   11.3420   25.8954 C   0  0  0  0  0  0  0  0  0  0  0  0
    6.2563   11.1118   26.7408 C   0  0  0  0  0  0  0  0  0  0  0  0
    5.3684   12.1422   27.0669 C   0  0  0  0  0  0  0  0  0  0  0  0
    5.5339   13.3988   26.4540 C   0  0  0  0  0  0  0  0  0  0  0  0
    6.6344   13.6392   25.6166 C   0  0  0  0  0  0  0  0  0  0  0  0
    4.5605   14.5176   26.7213 C   0  0  0  0  0  0  0  0  0  0  0  0
    3.2402   13.9911   27.2696 C   0  0  0  0  0  0  0  0  0  0  0  0
    3.5140   12.9932   28.3832 C   0  0  0  0  0  0  0  0  0  0  0  0
    4.2545   11.8464   27.8703 N   0  0  0  0  0  0  0  0  0  0  0  0
  1  2  2  0
  2  3  1  0
  3  4  1  0
  4  5  1  0
  5  6  1  0
  6  7  1  0
  7  8  1  0
  8  9  1  0
  2 10  1  0
 10 11  2  0
 11 12  1  0
 12 13  2  0
 13 14  1  0
 14 15  2  0
 14 16  1  0
 16 17  1  0
 17 18  1  0
 18 19  1  0
  9  4  1  0
 15 10  1  0
 19 13  1  0
M  END
>  <ref_pdb>  (792) 
A4320a

>  <subsites>  (792) 
1 - Active Site

>  <HIPPO Compound ID>  (792) 
26601

>  <energy_score>  (792) 
-35.566771

>  <fragmenstein_mode>  (792) 
expansion

>  <scratch_subdir>  (792) 
/opt/xchem-fragalysis-2/maxwin/BulkDock/SCRATCH/512206/C8903-P303

>  <smiles>  (792) 
O=C(CN1CCCCC1)c1ccc2c(c1)CCCN2

>  <alias>  (792) 
C8903-P303

>  <ref_mols>  (792) 
A1778a,A4320a

>  <inspiration_score>  (792) 
None

>  <tags>  (792) 
BulkDock Fragalysis export,fragmenstein_placed,openbind_a71ev2a_c1_knitwork_impure,openbind_a71ev2a_c1_scaffolds

>  <fragmenstein_outcome>  (792) 
acceptable

>  <fragmenstein_error>  (792) 


>  <distance_score>  (792) 
0.915323

>  <inchikey>  (792) 
VUSCGEMVKVOGIF-UHFFFAOYSA-N

>  <name>  (792) 
C8903-P303

>  <HIPPO Pose ID>  (792) 
407940

>  <Energy>  (792) 
64.963603

>  <exports>  (792) 
['/opt/xchem-fragalysis-2/maxwin/BulkDock/OUTPUTS/openbind_a71ev2a_c1_knitwork_impure_165VXJF.sdf', '/opt/xchem-fragalysis-2/maxwin/BulkDock/OUTPUTS/openbind_a71ev2a_c1_knitwork_impure_1B07QS4.sdf', '/opt/xchem-fragalysis-2/maxwin/BulkDock/OUTPUTS/openbind_a71ev2a_c1_knitwork_impure_1B07X5R.sdf', '/opt/xchem-fragalysis-2/maxwin/openbind-hippo/a71ev2a/openbind_a71ev2a_c1_scaffold_products.sdf', '/opt/xchem-fragalysis-2/maxwin/openbind-hippo/a71ev2a/cycle_01/bulkdock/openbind_a71ev2a_c1_scaffold_products.sdf', '/opt/xchem-fragalysis-2/maxwin/openbind-hippo/a71ev2a/cycle_01/bulkdock/openbind_a71ev2a_c1_scaffolds.sdf']

>  <fragmenstein_runtime>  (792) 
2.22859

$$$$
C935-P356
     RDKit          3D

 22 25  0  0  0  0  0  0  0  0999 V2000
   21.0354   15.4761    1.5430 C   0  0  0  0  0  0  0  0  0  0  0  0
   22.1491   14.6073    2.1678 C   0  0  0  0  0  0  0  0  0  0  0  0
   23.1766   15.5710    2.7707 C   0  0  0  0  0  0  0  0  0  0  0  0
   21.4662   13.7365    3.2143 C   0  0  0  0  0  0  0  0  0  0  0  0
   22.7492   13.7147    1.1092 C   0  0  0  0  0  0  0  0  0  0  0  0
   22.1626   13.4506   -0.0445 N   0  0  0  0  0  0  0  0  0  0  0  0
   22.9676   12.6237   -0.7745 N   0  0  0  0  0  0  0  0  0  0  0  0
   24.0374   12.3769   -0.0587 C   0  0  0  0  0  0  0  0  0  0  0  0
   23.9281   13.0079    1.1540 N   0  0  0  0  0  0  0  0  0  0  0  0
   24.9662   12.9883    2.1640 C   0  0  0  0  0  0  0  0  0  0  0  0
   26.0935   11.9797    1.8802 C   0  0  2  0  0  0  0  0  0  0  0  0
   27.3050   12.3507    2.6577 C   0  0  0  0  0  0  0  0  0  0  0  0
   27.9839   13.4756    2.6368 N   0  0  0  0  0  0  0  0  0  0  0  0
   29.0114   13.2003    3.5104 C   0  0  0  0  0  0  0  0  0  0  0  0
   30.1539   14.2400    3.8301 C   0  0  2  0  0  0  0  0  0  0  0  0
   30.1460   14.7933    5.2646 C   0  0  0  0  0  0  0  0  0  0  0  0
   29.2986   15.9385    4.6950 C   0  0  0  0  0  0  0  0  0  0  0  0
   29.8371   15.6191    3.3532 N   0  0  0  0  0  0  0  0  0  0  0  0
   28.9665   11.9826    4.0639 N   0  0  0  0  0  0  0  0  0  0  0  0
   27.8267   11.4112    3.4957 O   0  0  0  0  0  0  0  0  0  0  0  0
   26.4351   11.9359    0.3813 C   0  0  0  0  0  0  0  0  0  0  0  0
   25.2106   11.5590   -0.4435 C   0  0  0  0  0  0  0  0  0  0  0  0
  1  2  1  0
  2  3  1  0
  2  4  1  0
  2  5  1  0
  5  6  2  0
  6  7  1  0
  7  8  2  0
  8  9  1  0
  9 10  1  0
 10 11  1  0
 11 12  1  1
 12 13  2  0
 13 14  1  0
 15 14  1  1
 15 16  1  0
 16 17  1  0
 17 18  1  0
 14 19  2  0
 19 20  1  0
 11 21  1  0
 21 22  1  0
  9  5  1  0
 20 12  1  0
 22  8  1  0
 18 15  1  0
M  END
>  <ref_pdb>  (793) 
A4418a

>  <subsites>  (793) 
1 - Active Site,6 - A0486/A/147/1

>  <HIPPO Compound ID>  (793) 
16455

>  <energy_score>  (793) 
-52.182435

>  <fragmenstein_mode>  (793) 
expansion

>  <scratch_subdir>  (793) 
/opt/xchem-fragalysis-2/maxwin/BulkDock/SCRATCH/512206/C935-P356

>  <smiles>  (793) 
CC(C)(C)c1nnc2n1C[C@H](c1nc([C@@H]3CCN3)no1)CC2

>  <alias>  (793) 
C935-P356

>  <ref_mols>  (793) 
A0239a,A4418a

>  <inspiration_score>  (793) 
None

>  <tags>  (793) 
BulkDock Fragalysis export,fragmenstein_placed,openbind_a71ev2a_c1_knitwork_impure,openbind_a71ev2a_c1_scaffolds

>  <fragmenstein_outcome>  (793) 
acceptable

>  <fragmenstein_error>  (793) 


>  <distance_score>  (793) 
0.853779

>  <inchikey>  (793) 
RMEDOQBOVLJYDX-UHFFFAOYSA-N

>  <name>  (793) 
C935-P356

>  <HIPPO Pose ID>  (793) 
408891

>  <Energy>  (793) 
35.671476

>  <exports>  (793) 
['/opt/xchem-fragalysis-2/maxwin/BulkDock/OUTPUTS/openbind_a71ev2a_c1_knitwork_impure_165VXJF.sdf', '/opt/xchem-fragalysis-2/maxwin/BulkDock/OUTPUTS/openbind_a71ev2a_c1_knitwork_impure_1B07QS4.sdf', '/opt/xchem-fragalysis-2/maxwin/BulkDock/OUTPUTS/openbind_a71ev2a_c1_knitwork_impure_1B07X5R.sdf', '/opt/xchem-fragalysis-2/maxwin/openbind-hippo/a71ev2a/openbind_a71ev2a_c1_scaffold_products.sdf', '/opt/xchem-fragalysis-2/maxwin/openbind-hippo/a71ev2a/cycle_01/bulkdock/openbind_a71ev2a_c1_scaffold_products.sdf', '/opt/xchem-fragalysis-2/maxwin/openbind-hippo/a71ev2a/cycle_01/bulkdock/openbind_a71ev2a_c1_scaffolds.sdf']

>  <fragmenstein_runtime>  (793) 
7.855181

$$$$
C2799-P440
     RDKit          3D

 14 16  0  0  0  0  0  0  0  0999 V2000
   11.2871   15.3295   21.7433 C   0  0  0  0  0  0  0  0  0  0  0  0
   10.1698   15.0087   20.7603 C   0  0  0  0  0  0  0  0  0  0  0  0
    8.8941   15.1091   21.3955 O   0  0  0  0  0  0  0  0  0  0  0  0
    8.7572   14.2051   22.4940 C   0  0  0  0  0  0  0  0  0  0  0  0
    9.7842   14.5287   23.5965 C   0  0  1  0  0  0  0  0  0  0  0  0
    9.4921   13.7307   24.7996 N   0  0  0  0  0  0  0  0  0  0  0  0
   10.0175   12.3602   24.8333 C   0  0  0  0  0  0  0  0  0  0  0  0
   11.4330   12.2475   25.4487 C   0  0  0  0  0  0  0  0  0  0  0  0
   11.5985   12.9364   26.7397 N   0  0  0  0  0  0  0  0  0  0  0  0
   11.1353   14.3266   26.6481 C   0  0  0  0  0  0  0  0  0  0  0  0
    9.7198   14.4123   26.1011 C   0  0  0  0  0  0  0  0  0  0  0  0
    8.8940   15.6401   26.4325 C   0  0  0  0  0  0  0  0  0  0  0  0
    8.5848   14.3386   27.1034 C   0  0  0  0  0  0  0  0  0  0  0  0
   11.1948   14.4452   22.9878 C   0  0  0  0  0  0  0  0  0  0  0  0
  1  2  1  0
  2  3  1  0
  3  4  1  0
  4  5  1  0
  5  6  1  1
  6  7  1  0
  7  8  1  0
  8  9  1  0
  9 10  1  0
 10 11  1  0
 11 12  1  0
 12 13  1  0
  5 14  1  0
 14  1  1  0
 11  6  1  0
 13 11  1  0
M  END
>  <ref_pdb>  (794) 
A4707a

>  <subsites>  (794) 
1 - Active Site

>  <HIPPO Compound ID>  (794) 
15985

>  <energy_score>  (794) 
-63.433133

>  <fragmenstein_mode>  (794) 
expansion

>  <scratch_subdir>  (794) 
/opt/xchem-fragalysis-2/maxwin/BulkDock/SCRATCH/512206/C2799-P440

>  <smiles>  (794) 
C1COC[C@@H](N2CCNCC23CC3)C1

>  <alias>  (794) 
C2799-P440

>  <ref_mols>  (794) 
A0473a,A4707a

>  <inspiration_score>  (794) 
None

>  <tags>  (794) 
BulkDock Fragalysis export,fragmenstein_placed,openbind_a71ev2a_c1_knitwork_impure,openbind_a71ev2a_c1_scaffolds

>  <fragmenstein_outcome>  (794) 
acceptable

>  <fragmenstein_error>  (794) 


>  <distance_score>  (794) 
0.862998

>  <inchikey>  (794) 
BPUIRSFWYLCZDK-UHFFFAOYSA-N

>  <name>  (794) 
C2799-P440

>  <HIPPO Pose ID>  (794) 
409247

>  <Energy>  (794) 
83.543528

>  <exports>  (794) 
['/opt/xchem-fragalysis-2/maxwin/BulkDock/OUTPUTS/openbind_a71ev2a_c1_knitwork_impure_165VXJF.sdf', '/opt/xchem-fragalysis-2/maxwin/BulkDock/OUTPUTS/openbind_a71ev2a_c1_knitwork_impure_1B07QS4.sdf', '/opt/xchem-fragalysis-2/maxwin/BulkDock/OUTPUTS/openbind_a71ev2a_c1_knitwork_impure_1B07X5R.sdf', '/opt/xchem-fragalysis-2/maxwin/openbind-hippo/a71ev2a/openbind_a71ev2a_c1_scaffold_products.sdf', '/opt/xchem-fragalysis-2/maxwin/openbind-hippo/a71ev2a/cycle_01/bulkdock/openbind_a71ev2a_c1_scaffold_products.sdf', '/opt/xchem-fragalysis-2/maxwin/openbind-hippo/a71ev2a/cycle_01/bulkdock/openbind_a71ev2a_c1_scaffolds.sdf']

>  <fragmenstein_runtime>  (794) 
7.700407

$$$$
C2408-P218
     RDKit          3D

 15 15  0  0  0  0  0  0  0  0999 V2000
    6.0798   12.3007   26.9434 C   0  0  0  0  0  0  0  0  0  0  0  0
    7.1487   13.1761   26.3063 C   0  0  0  0  0  0  0  0  0  0  0  0
    7.7818   12.5856   25.0398 C   0  0  2  0  0  0  0  0  0  0  0  0
    8.0095   11.0740   25.0902 C   0  0  0  0  0  0  0  0  0  0  0  0
    9.1318   13.2549   24.7448 C   0  0  0  0  0  0  0  0  0  0  0  0
   10.0239   13.1372   25.5986 O   0  0  0  0  0  0  0  0  0  0  0  0
    9.4414   13.8398   23.3185 C   0  0  0  0  0  0  0  0  0  0  0  0
    8.1936   13.8552   22.4332 C   0  0  0  0  0  0  0  0  0  0  0  0
   10.4326   12.8059   22.7759 C   0  0  0  0  0  0  0  0  0  0  0  0
    9.9743   15.2321   23.4105 N   0  0  0  0  0  0  0  0  0  0  0  0
   11.3428   15.3878   23.9213 C   0  0  0  0  0  0  0  0  0  0  0  0
   12.4571   15.2170   22.8824 C   0  0  0  0  0  0  0  0  0  0  0  0
   12.2296   16.0185   21.6084 C   0  0  0  0  0  0  0  0  0  0  0  0
   10.8145   15.8340   21.0845 C   0  0  0  0  0  0  0  0  0  0  0  0
    9.8135   16.0851   22.2087 C   0  0  0  0  0  0  0  0  0  0  0  0
  1  2  1  0
  2  3  1  0
  3  4  1  1
  3  5  1  0
  5  6  2  0
  5  7  1  0
  7  8  1  0
  7  9  1  0
  7 10  1  0
 10 11  1  0
 11 12  1  0
 12 13  1  0
 13 14  1  0
 14 15  1  0
 15 10  1  0
M  END
>  <ref_pdb>  (795) 
A3557b

>  <subsites>  (795) 
1 - Active Site

>  <HIPPO Compound ID>  (795) 
10627

>  <energy_score>  (795) 
-33.821625

>  <fragmenstein_mode>  (795) 
expansion

>  <scratch_subdir>  (795) 
/opt/xchem-fragalysis-2/maxwin/BulkDock/SCRATCH/512206/C2408-P218

>  <smiles>  (795) 
CC[C@H](C)C(=O)C(C)(C)N1CCCCC1

>  <alias>  (795) 
C2408-P218

>  <ref_mols>  (795) 
A3557b,A1779a

>  <inspiration_score>  (795) 
None

>  <tags>  (795) 
BulkDock Fragalysis export,fragmenstein_placed,openbind_a71ev2a_c1_knitwork_impure,openbind_a71ev2a_c1_scaffolds

>  <fragmenstein_outcome>  (795) 
acceptable

>  <fragmenstein_error>  (795) 


>  <distance_score>  (795) 
0.994461

>  <inchikey>  (795) 
YFNRJWQADGKRAX-UHFFFAOYSA-N

>  <name>  (795) 
C2408-P218

>  <HIPPO Pose ID>  (795) 
409737

>  <Energy>  (795) 
67.034985

>  <exports>  (795) 
['/opt/xchem-fragalysis-2/maxwin/BulkDock/OUTPUTS/openbind_a71ev2a_c1_knitwork_impure_165VXJF.sdf', '/opt/xchem-fragalysis-2/maxwin/BulkDock/OUTPUTS/openbind_a71ev2a_c1_knitwork_impure_1B07QS4.sdf', '/opt/xchem-fragalysis-2/maxwin/BulkDock/OUTPUTS/openbind_a71ev2a_c1_knitwork_impure_1B07X5R.sdf', '/opt/xchem-fragalysis-2/maxwin/openbind-hippo/a71ev2a/openbind_a71ev2a_c1_scaffold_products.sdf', '/opt/xchem-fragalysis-2/maxwin/openbind-hippo/a71ev2a/cycle_01/bulkdock/openbind_a71ev2a_c1_scaffold_products.sdf', '/opt/xchem-fragalysis-2/maxwin/openbind-hippo/a71ev2a/cycle_01/bulkdock/openbind_a71ev2a_c1_scaffolds.sdf']

>  <fragmenstein_runtime>  (795) 
7.966803

$$$$
C2410-P218
     RDKit          3D

 14 14  0  0  0  0  0  0  0  0999 V2000
   11.9335   14.5896   22.4860 C   0  0  0  0  0  0  0  0  0  0  0  0
   11.0189   15.3419   23.4142 C   0  0  0  0  0  0  0  0  0  0  0  0
   11.3454   15.0481   24.6994 F   0  0  0  0  0  0  0  0  0  0  0  0
   11.2882   16.6675   23.2749 F   0  0  0  0  0  0  0  0  0  0  0  0
    9.5266   15.1319   23.1776 C   0  0  0  0  0  0  0  0  0  0  0  0
    8.9623   13.7178   23.3862 C   0  0  0  0  0  0  0  0  0  0  0  0
    9.3418   13.1259   24.7351 C   0  0  2  0  0  0  0  0  0  0  0  0
   10.4782   12.3789   24.5586 F   0  0  0  0  0  0  0  0  0  0  0  0
    8.3166   12.2241   25.4345 C   0  0  1  0  0  0  0  0  0  0  0  0
    7.1017   12.9858   25.9672 C   0  0  0  0  0  0  0  0  0  0  0  0
    6.3402   12.1252   26.9739 C   0  0  0  0  0  0  0  0  0  0  0  0
    6.0609   10.7243   26.4426 C   0  0  0  0  0  0  0  0  0  0  0  0
    7.2366   10.1116   25.6825 C   0  0  0  0  0  0  0  0  0  0  0  0
    7.8771   11.0200   24.7236 N   0  0  0  0  0  0  0  0  0  0  0  0
  1  2  1  0
  2  3  1  0
  2  4  1  0
  2  5  1  0
  5  6  1  0
  6  7  1  0
  7  8  1  6
  7  9  1  0
  9 10  1  6
 10 11  1  0
 11 12  1  0
 12 13  1  0
 13 14  1  0
 14  9  1  0
M  END
>  <ref_pdb>  (796) 
A3557b

>  <subsites>  (796) 
1 - Active Site

>  <HIPPO Compound ID>  (796) 
31899

>  <energy_score>  (796) 
-35.659495

>  <fragmenstein_mode>  (796) 
expansion

>  <scratch_subdir>  (796) 
/opt/xchem-fragalysis-2/maxwin/BulkDock/SCRATCH/512206/C2410-P218

>  <smiles>  (796) 
CC(F)(F)CC[C@H](F)[C@H]1CCCCN1

>  <alias>  (796) 
C2410-P218

>  <ref_mols>  (796) 
A3557b,A1779a

>  <inspiration_score>  (796) 
None

>  <tags>  (796) 
BulkDock Fragalysis export,fragmenstein_placed,openbind_a71ev2a_c1_knitwork_impure,openbind_a71ev2a_c1_scaffolds

>  <fragmenstein_outcome>  (796) 
acceptable

>  <fragmenstein_error>  (796) 


>  <distance_score>  (796) 
0.9058

>  <inchikey>  (796) 
JNIRJKWCZGUUML-UHFFFAOYSA-N

>  <name>  (796) 
C2410-P218

>  <HIPPO Pose ID>  (796) 
409739

>  <Energy>  (796) 
31.459305

>  <exports>  (796) 
['/opt/xchem-fragalysis-2/maxwin/BulkDock/OUTPUTS/openbind_a71ev2a_c1_knitwork_impure_165VXJF.sdf', '/opt/xchem-fragalysis-2/maxwin/BulkDock/OUTPUTS/openbind_a71ev2a_c1_knitwork_impure_1B07QS4.sdf', '/opt/xchem-fragalysis-2/maxwin/BulkDock/OUTPUTS/openbind_a71ev2a_c1_knitwork_impure_1B07X5R.sdf', '/opt/xchem-fragalysis-2/maxwin/openbind-hippo/a71ev2a/openbind_a71ev2a_c1_scaffold_products.sdf', '/opt/xchem-fragalysis-2/maxwin/openbind-hippo/a71ev2a/cycle_01/bulkdock/openbind_a71ev2a_c1_scaffold_products.sdf', '/opt/xchem-fragalysis-2/maxwin/openbind-hippo/a71ev2a/cycle_01/bulkdock/openbind_a71ev2a_c1_scaffolds.sdf']

>  <fragmenstein_runtime>  (796) 
1.838815

$$$$
C2414-P218
     RDKit          3D

 16 16  0  0  0  0  0  0  0  0999 V2000
    5.9047   10.2249   26.8893 C   0  0  0  0  0  0  0  0  0  0  0  0
    6.4531   11.2244   26.5148 C   0  0  0  0  0  0  0  0  0  0  0  0
    7.1604   12.4030   25.9992 C   0  0  0  0  0  0  0  0  0  0  0  0
    8.1603   11.9758   24.9383 C   0  0  0  0  0  0  0  0  0  0  0  0
    9.2048   13.0234   24.6083 C   0  0  0  0  0  0  0  0  0  0  0  0
   10.3406   12.8162   25.0564 O   0  0  0  0  0  0  0  0  0  0  0  0
    8.7993   14.3256   23.7838 C   0  0  1  0  0  0  0  0  0  0  0  0
    7.5723   14.0002   22.9085 C   0  0  0  0  0  0  0  0  0  0  0  0
    8.4150   15.4138   24.8369 C   0  0  0  0  0  0  0  0  0  0  0  0
    7.6725   16.6366   24.3138 C   0  0  0  0  0  0  0  0  0  0  0  0
    9.9657   14.6670   22.9087 N   0  0  0  0  0  0  0  0  0  0  0  0
   11.0887   15.3124   23.6059 C   0  0  0  0  0  0  0  0  0  0  0  0
   12.3476   15.2182   22.7554 C   0  0  0  0  0  0  0  0  0  0  0  0
   12.1592   15.9595   21.4436 C   0  0  0  0  0  0  0  0  0  0  0  0
   10.9376   15.4152   20.7238 C   0  0  0  0  0  0  0  0  0  0  0  0
    9.7034   15.3639   21.6335 C   0  0  0  0  0  0  0  0  0  0  0  0
  1  2  3  0
  2  3  1  0
  3  4  1  0
  4  5  1  0
  5  6  2  0
  5  7  1  0
  7  8  1  6
  7  9  1  0
  9 10  1  0
  7 11  1  0
 11 12  1  0
 12 13  1  0
 13 14  1  0
 14 15  1  0
 15 16  1  0
 16 11  1  0
M  END
>  <ref_pdb>  (797) 
A3557b

>  <subsites>  (797) 
1 - Active Site

>  <HIPPO Compound ID>  (797) 
13918

>  <energy_score>  (797) 
-32.596698

>  <fragmenstein_mode>  (797) 
expansion

>  <scratch_subdir>  (797) 
/opt/xchem-fragalysis-2/maxwin/BulkDock/SCRATCH/512206/C2414-P218

>  <smiles>  (797) 
C#CCCC(=O)[C@@](C)(CC)N1CCCCC1

>  <alias>  (797) 
C2414-P218

>  <ref_mols>  (797) 
A3557b,A1779a

>  <inspiration_score>  (797) 
None

>  <tags>  (797) 
BulkDock Fragalysis export,fragmenstein_placed,openbind_a71ev2a_c1_knitwork_impure,openbind_a71ev2a_c1_scaffolds

>  <fragmenstein_outcome>  (797) 
acceptable

>  <fragmenstein_error>  (797) 


>  <distance_score>  (797) 
0.808896

>  <inchikey>  (797) 
FZXVNLASEWYDBT-UHFFFAOYSA-N

>  <name>  (797) 
C2414-P218

>  <HIPPO Pose ID>  (797) 
409742

>  <Energy>  (797) 
53.759278

>  <exports>  (797) 
['/opt/xchem-fragalysis-2/maxwin/BulkDock/OUTPUTS/openbind_a71ev2a_c1_knitwork_impure_165VXJF.sdf', '/opt/xchem-fragalysis-2/maxwin/BulkDock/OUTPUTS/openbind_a71ev2a_c1_knitwork_impure_1B07QS4.sdf', '/opt/xchem-fragalysis-2/maxwin/BulkDock/OUTPUTS/openbind_a71ev2a_c1_knitwork_impure_1B07X5R.sdf', '/opt/xchem-fragalysis-2/maxwin/openbind-hippo/a71ev2a/openbind_a71ev2a_c1_scaffold_products.sdf', '/opt/xchem-fragalysis-2/maxwin/openbind-hippo/a71ev2a/cycle_01/bulkdock/openbind_a71ev2a_c1_scaffold_products.sdf', '/opt/xchem-fragalysis-2/maxwin/openbind-hippo/a71ev2a/cycle_01/bulkdock/openbind_a71ev2a_c1_scaffolds.sdf']

>  <fragmenstein_runtime>  (797) 
7.57837

$$$$
C1791-P306
     RDKit          3D

 15 17  0  0  0  0  0  0  0  0999 V2000
    8.5073    9.3896   24.4551 C   0  0  0  0  0  0  0  0  0  0  0  0
    7.5857   10.0819   25.4930 C   0  0  0  0  0  0  0  0  0  0  0  0
    7.2529   11.5659   25.3081 C   0  0  0  0  0  0  0  0  0  0  0  0
    8.2160   12.1614   24.3926 C   0  0  0  0  0  0  0  0  0  0  0  0
    8.1458   13.4604   24.0425 O   0  0  0  0  0  0  0  0  0  0  0  0
    9.2140   13.5875   23.1943 C   0  0  0  0  0  0  0  0  0  0  0  0
    9.6292   14.9685   22.9055 C   0  0  0  0  0  0  0  0  0  0  0  0
   11.1246   15.0843   23.2199 C   0  0  0  0  0  0  0  0  0  0  0  0
   12.0002   14.6822   22.0534 C   0  0  0  0  0  0  0  0  0  0  0  0
   11.6181   15.4368   20.8741 N   0  0  0  0  0  0  0  0  0  0  0  0
   10.2721   15.0749   20.4507 C   0  0  0  0  0  0  0  0  0  0  0  0
    9.2419   15.4448   21.5072 C   0  0  0  0  0  0  0  0  0  0  0  0
    9.9033   12.4859   22.9779 N   0  0  0  0  0  0  0  0  0  0  0  0
    9.2783   11.5837   23.7576 C   0  0  0  0  0  0  0  0  0  0  0  0
    9.6838   10.1916   23.9215 C   0  0  0  0  0  0  0  0  0  0  0  0
  1  2  1  0
  2  3  1  0
  3  4  1  0
  4  5  1  0
  5  6  1  0
  6  7  1  0
  7  8  1  0
  8  9  1  0
  9 10  1  0
 10 11  1  0
 11 12  1  0
  6 13  2  0
 13 14  1  0
 14 15  1  0
 15  1  1  0
 14  4  2  0
 12  7  1  0
M  END
>  <ref_pdb>  (798) 
A4322a

>  <subsites>  (798) 
1 - Active Site

>  <HIPPO Compound ID>  (798) 
30751

>  <energy_score>  (798) 
-30.320899

>  <fragmenstein_mode>  (798) 
expansion

>  <scratch_subdir>  (798) 
/opt/xchem-fragalysis-2/maxwin/BulkDock/SCRATCH/512207/C1791-P306

>  <smiles>  (798) 
C1CCc2oc(C3CCNCC3)nc2C1

>  <alias>  (798) 
C1791-P306

>  <ref_mols>  (798) 
A3623a,A4322a

>  <inspiration_score>  (798) 
None

>  <tags>  (798) 
BulkDock Fragalysis export,fragmenstein_placed,openbind_a71ev2a_c1_knitwork_impure,openbind_a71ev2a_c1_scaffolds

>  <fragmenstein_outcome>  (798) 
acceptable

>  <fragmenstein_error>  (798) 


>  <distance_score>  (798) 
0.986439

>  <inchikey>  (798) 
ILEMUDAQJVYUBR-UHFFFAOYSA-N

>  <name>  (798) 
C1791-P306

>  <HIPPO Pose ID>  (798) 
409827

>  <Energy>  (798) 
10.54107

>  <exports>  (798) 
['/opt/xchem-fragalysis-2/maxwin/BulkDock/OUTPUTS/openbind_a71ev2a_c1_knitwork_impure_165VXJF.sdf', '/opt/xchem-fragalysis-2/maxwin/BulkDock/OUTPUTS/openbind_a71ev2a_c1_knitwork_impure_1B07QS4.sdf', '/opt/xchem-fragalysis-2/maxwin/BulkDock/OUTPUTS/openbind_a71ev2a_c1_knitwork_impure_1B07X5R.sdf', '/opt/xchem-fragalysis-2/maxwin/openbind-hippo/a71ev2a/openbind_a71ev2a_c1_scaffold_products.sdf', '/opt/xchem-fragalysis-2/maxwin/openbind-hippo/a71ev2a/cycle_01/bulkdock/openbind_a71ev2a_c1_scaffold_products.sdf', '/opt/xchem-fragalysis-2/maxwin/openbind-hippo/a71ev2a/cycle_01/bulkdock/openbind_a71ev2a_c1_scaffolds.sdf']

>  <fragmenstein_runtime>  (798) 
36.35121

$$$$
C1783-P196
     RDKit          3D

 15 17  0  0  0  0  0  0  0  0999 V2000
   11.6108   15.4036   21.0495 C   0  0  0  0  0  0  0  0  0  0  0  0
   11.8385   15.0251   22.5054 C   0  0  0  0  0  0  0  0  0  0  0  0
   10.8604   15.7732   23.4041 C   0  0  0  0  0  0  0  0  0  0  0  0
    9.4000   15.6447   22.9486 C   0  0  2  0  0  0  0  0  0  0  0  0
    8.8232   14.3125   23.3880 C   0  0  0  0  0  0  0  0  0  0  0  0
    9.2966   13.1218   23.0722 N   0  0  0  0  0  0  0  0  0  0  0  0
    8.6349   12.1304   23.7647 C   0  0  0  0  0  0  0  0  0  0  0  0
    7.6177   12.5821   24.5705 C   0  0  0  0  0  0  0  0  0  0  0  0
    7.4910   14.2839   24.4722 S   0  0  0  0  0  0  0  0  0  0  0  0
    6.7011   11.8267   25.4405 C   0  0  0  0  0  0  0  0  0  0  0  0
    7.0340   10.0551   25.5615 S   0  0  0  0  0  0  0  0  0  0  0  0
    8.0996    9.6818   24.1335 C   0  0  0  0  0  0  0  0  0  0  0  0
    9.0715   10.7220   23.6110 C   0  0  0  0  0  0  0  0  0  0  0  0
    9.2345   15.9387   21.5216 N   0  0  0  0  0  0  0  0  0  0  0  0
   10.1516   15.2074   20.6524 C   0  0  0  0  0  0  0  0  0  0  0  0
  1  2  1  0
  2  3  1  0
  3  4  1  0
  4  5  1  6
  5  6  2  0
  6  7  1  0
  7  8  2  0
  8  9  1  0
  8 10  1  0
 10 11  1  0
 11 12  1  0
 12 13  1  0
  4 14  1  0
 14 15  1  0
 15  1  1  0
  9  5  1  0
 13  7  1  0
M  END
>  <ref_pdb>  (799) 
A3616a

>  <subsites>  (799) 
1 - Active Site

>  <HIPPO Compound ID>  (799) 
2306

>  <energy_score>  (799) 
-50.276435

>  <fragmenstein_mode>  (799) 
expansion

>  <scratch_subdir>  (799) 
/opt/xchem-fragalysis-2/maxwin/BulkDock/SCRATCH/512207/C1783-P196

>  <smiles>  (799) 
C1CC[C@H](c2nc3c(s2)CSCC3)NC1

>  <alias>  (799) 
C1783-P196

>  <ref_mols>  (799) 
A3623a,A3616a

>  <inspiration_score>  (799) 
None

>  <tags>  (799) 
BulkDock Fragalysis export,fragmenstein_placed,openbind_a71ev2a_c1_knitwork_impure,openbind_a71ev2a_c1_scaffolds

>  <fragmenstein_outcome>  (799) 
acceptable

>  <fragmenstein_error>  (799) 


>  <distance_score>  (799) 
0.74586

>  <inchikey>  (799) 
KYJVTOFXJSRGMR-UHFFFAOYSA-N

>  <name>  (799) 
C1783-P196

>  <HIPPO Pose ID>  (799) 
410045

>  <Energy>  (799) 
37.700285

>  <exports>  (799) 
['/opt/xchem-fragalysis-2/maxwin/BulkDock/OUTPUTS/openbind_a71ev2a_c1_knitwork_impure_165VXJF.sdf', '/opt/xchem-fragalysis-2/maxwin/BulkDock/OUTPUTS/openbind_a71ev2a_c1_knitwork_impure_1B07QS4.sdf', '/opt/xchem-fragalysis-2/maxwin/BulkDock/OUTPUTS/openbind_a71ev2a_c1_knitwork_impure_1B07X5R.sdf', '/opt/xchem-fragalysis-2/maxwin/openbind-hippo/a71ev2a/openbind_a71ev2a_c1_scaffold_products.sdf', '/opt/xchem-fragalysis-2/maxwin/openbind-hippo/a71ev2a/cycle_01/bulkdock/openbind_a71ev2a_c1_scaffold_products.sdf', '/opt/xchem-fragalysis-2/maxwin/openbind-hippo/a71ev2a/cycle_01/bulkdock/openbind_a71ev2a_c1_scaffolds.sdf']

>  <fragmenstein_runtime>  (799) 
43.07357

$$$$
C1795-P196
     RDKit          3D

 15 17  0  0  0  0  0  0  0  0999 V2000
   11.5291   15.5479   20.9822 C   0  0  0  0  0  0  0  0  0  0  0  0
   11.8855   15.0220   22.3661 C   0  0  0  0  0  0  0  0  0  0  0  0
   10.9640   15.6002   23.4321 C   0  0  0  0  0  0  0  0  0  0  0  0
    9.5498   15.4022   23.1177 N   0  0  0  0  0  0  0  0  0  0  0  0
    9.0198   14.2095   23.4955 C   0  0  0  0  0  0  0  0  0  0  0  0
    9.5189   13.0218   23.2161 N   0  0  0  0  0  0  0  0  0  0  0  0
    8.7757   12.0281   23.8117 C   0  0  0  0  0  0  0  0  0  0  0  0
    7.7352   12.4828   24.5837 C   0  0  0  0  0  0  0  0  0  0  0  0
    7.6228   14.1757   24.5098 S   0  0  0  0  0  0  0  0  0  0  0  0
    6.7896   11.6537   25.3554 C   0  0  0  0  0  0  0  0  0  0  0  0
    7.2001   10.1821   25.3525 C   0  0  0  0  0  0  0  0  0  0  0  0
    8.0191    9.6593   24.1709 C   0  0  0  0  0  0  0  0  0  0  0  0
    9.0950   10.5895   23.6110 C   0  0  0  0  0  0  0  0  0  0  0  0
    9.1627   15.9038   21.7877 C   0  0  0  0  0  0  0  0  0  0  0  0
   10.0492   15.3259   20.6857 C   0  0  0  0  0  0  0  0  0  0  0  0
  1  2  1  0
  2  3  1  0
  3  4  1  0
  4  5  1  0
  5  6  2  0
  6  7  1  0
  7  8  2  0
  8  9  1  0
  8 10  1  0
 10 11  1  0
 11 12  1  0
 12 13  1  0
  4 14  1  0
 14 15  1  0
 15  1  1  0
  9  5  1  0
 13  7  1  0
M  END
>  <ref_pdb>  (800) 
A3616a

>  <subsites>  (800) 
1 - Active Site

>  <HIPPO Compound ID>  (800) 
10439

>  <energy_score>  (800) 
-74.147185

>  <fragmenstein_mode>  (800) 
expansion

>  <scratch_subdir>  (800) 
/opt/xchem-fragalysis-2/maxwin/BulkDock/SCRATCH/512207/C1795-P196

>  <smiles>  (800) 
C1CCN(c2nc3c(s2)CCCC3)CC1

>  <alias>  (800) 
C1795-P196

>  <ref_mols>  (800) 
A3623a,A3616a

>  <inspiration_score>  (800) 
None

>  <tags>  (800) 
BulkDock Fragalysis export,fragmenstein_placed,openbind_a71ev2a_c1_knitwork_impure,openbind_a71ev2a_c1_scaffolds

>  <fragmenstein_outcome>  (800) 
acceptable

>  <fragmenstein_error>  (800) 


>  <distance_score>  (800) 
0.821261

>  <inchikey>  (800) 
OOKCZDOQBFPXBA-UHFFFAOYSA-N

>  <name>  (800) 
C1795-P196

>  <HIPPO Pose ID>  (800) 
410047

>  <Energy>  (800) 
-7.05162

>  <exports>  (800) 
['/opt/xchem-fragalysis-2/maxwin/BulkDock/OUTPUTS/openbind_a71ev2a_c1_knitwork_impure_165VXJF.sdf', '/opt/xchem-fragalysis-2/maxwin/BulkDock/OUTPUTS/openbind_a71ev2a_c1_knitwork_impure_1B07QS4.sdf', '/opt/xchem-fragalysis-2/maxwin/BulkDock/OUTPUTS/openbind_a71ev2a_c1_knitwork_impure_1B07X5R.sdf', '/opt/xchem-fragalysis-2/maxwin/openbind-hippo/a71ev2a/openbind_a71ev2a_c1_scaffold_products.sdf', '/opt/xchem-fragalysis-2/maxwin/openbind-hippo/a71ev2a/cycle_01/bulkdock/openbind_a71ev2a_c1_scaffold_products.sdf', '/opt/xchem-fragalysis-2/maxwin/openbind-hippo/a71ev2a/cycle_01/bulkdock/openbind_a71ev2a_c1_scaffolds.sdf']

>  <fragmenstein_runtime>  (800) 
42.627639

$$$$
C1805-P196
     RDKit          3D

 15 17  0  0  0  0  0  0  0  0999 V2000
   11.8039   15.0706   22.4531 C   0  0  0  0  0  0  0  0  0  0  0  0
   10.8565   15.7874   23.4091 C   0  0  0  0  0  0  0  0  0  0  0  0
    9.3889   15.6876   22.9826 C   0  0  0  0  0  0  0  0  0  0  0  0
    8.8097   14.3604   23.4017 C   0  0  0  0  0  0  0  0  0  0  0  0
    9.2925   13.1781   23.0808 N   0  0  0  0  0  0  0  0  0  0  0  0
    8.6341   12.1770   23.7628 C   0  0  0  0  0  0  0  0  0  0  0  0
    7.6107   12.6160   24.5676 C   0  0  0  0  0  0  0  0  0  0  0  0
    7.4702   14.3173   24.4746 S   0  0  0  0  0  0  0  0  0  0  0  0
    6.7010   11.8488   25.4346 C   0  0  0  0  0  0  0  0  0  0  0  0
    7.0524   10.0800   25.5542 S   0  0  0  0  0  0  0  0  0  0  0  0
    8.1249    9.7218   24.1270 C   0  0  0  0  0  0  0  0  0  0  0  0
    9.0870   10.7743   23.6096 C   0  0  0  0  0  0  0  0  0  0  0  0
    9.2170   15.9721   21.4884 C   0  0  0  0  0  0  0  0  0  0  0  0
   10.2536   15.2618   20.6245 C   0  0  0  0  0  0  0  0  0  0  0  0
   11.6167   15.5206   21.0810 N   0  0  0  0  0  0  0  0  0  0  0  0
  1  2  1  0
  2  3  1  0
  3  4  1  0
  4  5  2  0
  5  6  1  0
  6  7  2  0
  7  8  1  0
  7  9  1  0
  9 10  1  0
 10 11  1  0
 11 12  1  0
  3 13  1  0
 13 14  1  0
 14 15  1  0
 15  1  1  0
  8  4  1  0
 12  6  1  0
M  END
>  <ref_pdb>  (801) 
A3616a

>  <subsites>  (801) 
1 - Active Site

>  <HIPPO Compound ID>  (801) 
82705

>  <energy_score>  (801) 
-78.747878

>  <fragmenstein_mode>  (801) 
expansion

>  <scratch_subdir>  (801) 
/opt/xchem-fragalysis-2/maxwin/BulkDock/SCRATCH/512207/C1805-P196

>  <smiles>  (801) 
C1CC(c2nc3c(s2)CSCC3)CCN1

>  <alias>  (801) 
C1805-P196

>  <ref_mols>  (801) 
A3623a,A3616a

>  <inspiration_score>  (801) 
None

>  <tags>  (801) 
BulkDock Fragalysis export,fragmenstein_placed,openbind_a71ev2a_c1_knitwork_impure,openbind_a71ev2a_c1_scaffolds

>  <fragmenstein_outcome>  (801) 
acceptable

>  <fragmenstein_error>  (801) 


>  <distance_score>  (801) 
0.737424

>  <inchikey>  (801) 
IMAPXTOLBMFUCR-UHFFFAOYSA-N

>  <name>  (801) 
C1805-P196

>  <HIPPO Pose ID>  (801) 
410052

>  <Energy>  (801) 
12.200722

>  <exports>  (801) 
['/opt/xchem-fragalysis-2/maxwin/BulkDock/OUTPUTS/openbind_a71ev2a_c1_knitwork_impure_165VXJF.sdf', '/opt/xchem-fragalysis-2/maxwin/BulkDock/OUTPUTS/openbind_a71ev2a_c1_knitwork_impure_1B07QS4.sdf', '/opt/xchem-fragalysis-2/maxwin/BulkDock/OUTPUTS/openbind_a71ev2a_c1_knitwork_impure_1B07X5R.sdf', '/opt/xchem-fragalysis-2/maxwin/openbind-hippo/a71ev2a/openbind_a71ev2a_c1_scaffold_products.sdf', '/opt/xchem-fragalysis-2/maxwin/openbind-hippo/a71ev2a/cycle_01/bulkdock/openbind_a71ev2a_c1_scaffold_products.sdf', '/opt/xchem-fragalysis-2/maxwin/openbind-hippo/a71ev2a/cycle_01/bulkdock/openbind_a71ev2a_c1_scaffolds.sdf']

>  <fragmenstein_runtime>  (801) 
52.170923

$$$$
C1810-P196
     RDKit          3D

 15 17  0  0  0  0  0  0  0  0999 V2000
    7.1773   10.2695   25.3239 C   0  0  0  0  0  0  0  0  0  0  0  0
    7.9355    9.5135   24.2281 C   0  0  0  0  0  0  0  0  0  0  0  0
    9.1788   10.1867   23.6463 C   0  0  0  0  0  0  0  0  0  0  0  0
    9.1112   11.6642   23.7904 C   0  0  0  0  0  0  0  0  0  0  0  0
   10.2812   12.7229   23.1849 S   0  0  0  0  0  0  0  0  0  0  0  0
    9.2786   14.0652   23.5679 C   0  0  0  0  0  0  0  0  0  0  0  0
    9.6169   15.4776   23.1596 C   0  0  0  0  0  0  0  0  0  0  0  0
   11.0994   15.8269   23.3023 C   0  0  0  0  0  0  0  0  0  0  0  0
   11.9473   15.4673   22.0819 C   0  0  0  0  0  0  0  0  0  0  0  0
   11.3606   15.9693   20.8510 N   0  0  0  0  0  0  0  0  0  0  0  0
   10.0196   15.4383   20.6380 C   0  0  0  0  0  0  0  0  0  0  0  0
    9.0765   15.8370   21.7687 C   0  0  0  0  0  0  0  0  0  0  0  0
    8.2081   13.7541   24.2735 N   0  0  0  0  0  0  0  0  0  0  0  0
    8.1249   12.3877   24.4157 C   0  0  0  0  0  0  0  0  0  0  0  0
    6.9844   11.7726   25.1221 C   0  0  0  0  0  0  0  0  0  0  0  0
  1  2  1  0
  2  3  1  0
  3  4  1  0
  4  5  1  0
  5  6  1  0
  6  7  1  0
  7  8  1  0
  8  9  1  0
  9 10  1  0
 10 11  1  0
 11 12  1  0
  6 13  2  0
 13 14  1  0
 14 15  1  0
 15  1  1  0
 14  4  2  0
 12  7  1  0
M  END
>  <ref_pdb>  (802) 
A3616a

>  <subsites>  (802) 
1 - Active Site

>  <HIPPO Compound ID>  (802) 
678

>  <energy_score>  (802) 
-34.277456

>  <fragmenstein_mode>  (802) 
expansion

>  <scratch_subdir>  (802) 
/opt/xchem-fragalysis-2/maxwin/BulkDock/SCRATCH/512207/C1810-P196

>  <smiles>  (802) 
C1CCc2sc(C3CCNCC3)nc2C1

>  <alias>  (802) 
C1810-P196

>  <ref_mols>  (802) 
A3623a,A3616a

>  <inspiration_score>  (802) 
None

>  <tags>  (802) 
BulkDock Fragalysis export,fragmenstein_placed,openbind_a71ev2a_c1_knitwork_impure,openbind_a71ev2a_c1_scaffolds

>  <fragmenstein_outcome>  (802) 
acceptable

>  <fragmenstein_error>  (802) 


>  <distance_score>  (802) 
0.93026

>  <inchikey>  (802) 
JMKABZRQVLZKMP-UHFFFAOYSA-N

>  <name>  (802) 
C1810-P196

>  <HIPPO Pose ID>  (802) 
410053

>  <Energy>  (802) 
9.246907

>  <exports>  (802) 
['/opt/xchem-fragalysis-2/maxwin/BulkDock/OUTPUTS/openbind_a71ev2a_c1_knitwork_impure_165VXJF.sdf', '/opt/xchem-fragalysis-2/maxwin/BulkDock/OUTPUTS/openbind_a71ev2a_c1_knitwork_impure_1B07QS4.sdf', '/opt/xchem-fragalysis-2/maxwin/BulkDock/OUTPUTS/openbind_a71ev2a_c1_knitwork_impure_1B07X5R.sdf', '/opt/xchem-fragalysis-2/maxwin/openbind-hippo/a71ev2a/openbind_a71ev2a_c1_scaffold_products.sdf', '/opt/xchem-fragalysis-2/maxwin/openbind-hippo/a71ev2a/cycle_01/bulkdock/openbind_a71ev2a_c1_scaffold_products.sdf', '/opt/xchem-fragalysis-2/maxwin/openbind-hippo/a71ev2a/cycle_01/bulkdock/openbind_a71ev2a_c1_scaffolds.sdf']

>  <fragmenstein_runtime>  (802) 
48.285817

$$$$
C8903-P225
     RDKit          3D

 19 21  0  0  0  0  0  0  0  0999 V2000
    9.2118   13.8840   25.5103 O   0  0  0  0  0  0  0  0  0  0  0  0
    8.6003   13.2414   24.6575 C   0  0  0  0  0  0  0  0  0  0  0  0
    8.8288   13.3206   23.1537 C   0  0  0  0  0  0  0  0  0  0  0  0
    9.6712   14.4762   22.8097 N   0  0  0  0  0  0  0  0  0  0  0  0
   11.0836   14.2048   23.1253 C   0  0  0  0  0  0  0  0  0  0  0  0
   11.9074   15.4611   22.8966 C   0  0  0  0  0  0  0  0  0  0  0  0
   11.8221   15.9028   21.4458 C   0  0  0  0  0  0  0  0  0  0  0  0
   10.3648   16.0715   21.0339 C   0  0  0  0  0  0  0  0  0  0  0  0
    9.5327   14.8374   21.3891 C   0  0  0  0  0  0  0  0  0  0  0  0
    7.5717   12.2916   25.1321 C   0  0  0  0  0  0  0  0  0  0  0  0
    7.6399   10.9399   24.8065 C   0  0  0  0  0  0  0  0  0  0  0  0
    6.8041   10.0399   25.4726 C   0  0  0  0  0  0  0  0  0  0  0  0
    5.9052   10.4678   26.4611 C   0  0  0  0  0  0  0  0  0  0  0  0
    5.8185   11.8402   26.7434 C   0  0  0  0  0  0  0  0  0  0  0  0
    6.6355   12.7499   26.0621 C   0  0  0  0  0  0  0  0  0  0  0  0
    4.8733   12.3341   27.8079 C   0  0  0  0  0  0  0  0  0  0  0  0
    4.6906   11.2812   28.8951 C   0  0  0  0  0  0  0  0  0  0  0  0
    4.2998    9.9522   28.2670 C   0  0  0  0  0  0  0  0  0  0  0  0
    5.2768    9.5362   27.2787 N   0  0  0  0  0  0  0  0  0  0  0  0
  1  2  2  0
  2  3  1  0
  3  4  1  0
  4  5  1  0
  5  6  1  0
  6  7  1  0
  7  8  1  0
  8  9  1  0
  2 10  1  0
 10 11  2  0
 11 12  1  0
 12 13  2  0
 13 14  1  0
 14 15  2  0
 14 16  1  0
 16 17  1  0
 17 18  1  0
 18 19  1  0
  9  4  1  0
 15 10  1  0
 19 13  1  0
M  END
>  <ref_pdb>  (803) 
A3858a

>  <subsites>  (803) 
1 - Active Site

>  <HIPPO Compound ID>  (803) 
22847

>  <energy_score>  (803) 
-31.596169

>  <fragmenstein_mode>  (803) 
expansion

>  <scratch_subdir>  (803) 
/opt/xchem-fragalysis-2/maxwin/BulkDock/SCRATCH/512207/C8903-P225

>  <smiles>  (803) 
O=C(CN1CCCCC1)c1ccc2c(c1)CCCN2

>  <alias>  (803) 
C8903-P225

>  <ref_mols>  (803) 
A3858a,A1778a

>  <inspiration_score>  (803) 
None

>  <tags>  (803) 
BulkDock Fragalysis export,fragmenstein_placed,openbind_a71ev2a_c1_knitwork_impure,openbind_a71ev2a_c1_scaffolds

>  <fragmenstein_outcome>  (803) 
acceptable

>  <fragmenstein_error>  (803) 


>  <distance_score>  (803) 
0.868479

>  <inchikey>  (803) 
UWKMOLXBPRPLBM-UHFFFAOYSA-N

>  <name>  (803) 
C8903-P225

>  <HIPPO Pose ID>  (803) 
410179

>  <Energy>  (803) 
61.108834

>  <exports>  (803) 
['/opt/xchem-fragalysis-2/maxwin/BulkDock/OUTPUTS/openbind_a71ev2a_c1_knitwork_impure_165VXJF.sdf', '/opt/xchem-fragalysis-2/maxwin/BulkDock/OUTPUTS/openbind_a71ev2a_c1_knitwork_impure_1B07QS4.sdf', '/opt/xchem-fragalysis-2/maxwin/BulkDock/OUTPUTS/openbind_a71ev2a_c1_knitwork_impure_1B07X5R.sdf', '/opt/xchem-fragalysis-2/maxwin/openbind-hippo/a71ev2a/openbind_a71ev2a_c1_scaffold_products.sdf', '/opt/xchem-fragalysis-2/maxwin/openbind-hippo/a71ev2a/cycle_01/bulkdock/openbind_a71ev2a_c1_scaffold_products.sdf', '/opt/xchem-fragalysis-2/maxwin/openbind-hippo/a71ev2a/cycle_01/bulkdock/openbind_a71ev2a_c1_scaffolds.sdf']

>  <fragmenstein_runtime>  (803) 
6.735402

$$$$
C4702-P304
     RDKit          3D

 11 11  0  0  0  0  0  0  0  0999 V2000
   10.5656   15.6452   19.7908 C   0  0  0  0  0  0  0  0  0  0  0  0
   10.5312   15.5567   21.1311 C   0  0  0  0  0  0  0  0  0  0  0  0
   11.7308   15.9177   21.9627 C   0  0  0  0  0  0  0  0  0  0  0  0
   11.9663   14.8658   23.0372 C   0  0  0  0  0  0  0  0  0  0  0  0
   10.6942   14.5854   23.8281 C   0  0  0  0  0  0  0  0  0  0  0  0
    9.6560   14.0909   22.9182 N   0  0  0  0  0  0  0  0  0  0  0  0
    8.4741   13.5298   23.6060 C   0  0  2  0  0  0  0  0  0  0  0  0
    7.9386   14.3503   24.7734 C   0  0  0  0  0  0  0  0  0  0  0  0
    8.8129   12.1094   24.0849 C   0  0  0  0  0  0  0  0  0  0  0  0
    8.3961   11.5990   25.1254 O   0  0  0  0  0  0  0  0  0  0  0  0
    9.3108   15.1178   21.9135 C   0  0  0  0  0  0  0  0  0  0  0  0
  1  2  2  0
  2  3  1  0
  3  4  1  0
  4  5  1  0
  5  6  1  0
  6  7  1  0
  7  8  1  1
  7  9  1  0
  9 10  2  0
  6 11  1  0
 11  2  1  0
M  END
>  <ref_pdb>  (804) 
A4321a

>  <subsites>  (804) 
1 - Active Site

>  <HIPPO Compound ID>  (804) 
9975

>  <energy_score>  (804) 
-20.010624

>  <fragmenstein_mode>  (804) 
expansion

>  <scratch_subdir>  (804) 
/opt/xchem-fragalysis-2/maxwin/BulkDock/SCRATCH/512207/C4702-P304

>  <smiles>  (804) 
C=C1CCCN([C@H](C)C=O)C1

>  <alias>  (804) 
C4702-P304

>  <ref_mols>  (804) 
A4321a,A1775a

>  <inspiration_score>  (804) 
None

>  <tags>  (804) 
BulkDock Fragalysis export,fragmenstein_placed,openbind_a71ev2a_c1_knitwork_impure,openbind_a71ev2a_c1_scaffolds

>  <fragmenstein_outcome>  (804) 
acceptable

>  <fragmenstein_error>  (804) 


>  <distance_score>  (804) 
0.983369

>  <inchikey>  (804) 
QLSUFWUEOGJURT-UHFFFAOYSA-N

>  <name>  (804) 
C4702-P304

>  <HIPPO Pose ID>  (804) 
411026

>  <Energy>  (804) 
28.063034

>  <exports>  (804) 
['/opt/xchem-fragalysis-2/maxwin/BulkDock/OUTPUTS/openbind_a71ev2a_c1_knitwork_impure_165VXJF.sdf', '/opt/xchem-fragalysis-2/maxwin/BulkDock/OUTPUTS/openbind_a71ev2a_c1_knitwork_impure_1B07QS4.sdf', '/opt/xchem-fragalysis-2/maxwin/BulkDock/OUTPUTS/openbind_a71ev2a_c1_knitwork_impure_1B07X5R.sdf', '/opt/xchem-fragalysis-2/maxwin/openbind-hippo/a71ev2a/openbind_a71ev2a_c1_scaffold_products.sdf', '/opt/xchem-fragalysis-2/maxwin/openbind-hippo/a71ev2a/cycle_01/bulkdock/openbind_a71ev2a_c1_scaffold_products.sdf', '/opt/xchem-fragalysis-2/maxwin/openbind-hippo/a71ev2a/cycle_01/bulkdock/openbind_a71ev2a_c1_scaffolds.sdf']

>  <fragmenstein_runtime>  (804) 
2.069533

$$$$
C7527-P494
     RDKit          3D

 15 15  0  0  0  0  0  0  0  0999 V2000
    9.8466   10.8303   22.7687 F   0  0  0  0  0  0  0  0  0  0  0  0
    9.6455    9.7475   23.5436 C   0  0  0  0  0  0  0  0  0  0  0  0
   10.7719    9.4857   24.2206 F   0  0  0  0  0  0  0  0  0  0  0  0
    9.4586    8.7141   22.7114 F   0  0  0  0  0  0  0  0  0  0  0  0
    8.4653    9.9856   24.4776 C   0  0  0  0  0  0  0  0  0  0  0  0
    8.3880   11.2186   25.2183 O   0  0  0  0  0  0  0  0  0  0  0  0
    8.5172   12.3319   24.3293 C   0  0  0  0  0  0  0  0  0  0  0  0
    7.9534   13.6306   24.8952 C   0  0  0  0  0  0  0  0  0  0  0  0
    7.8821   14.7192   23.8955 N   0  0  0  0  0  0  0  0  0  0  0  0
    9.0519   14.6974   23.0228 N   0  0  0  0  0  0  0  0  0  0  0  0
   10.2267   15.2616   23.7104 C   0  0  0  0  0  0  0  0  0  0  0  0
   11.4577   15.0952   22.8249 C   0  0  0  0  0  0  0  0  0  0  0  0
   11.2733   15.8138   21.4966 C   0  0  0  0  0  0  0  0  0  0  0  0
    9.9767   15.3734   20.8272 C   0  0  0  0  0  0  0  0  0  0  0  0
    8.7839   15.4587   21.7842 C   0  0  0  0  0  0  0  0  0  0  0  0
  1  2  1  0
  2  3  1  0
  2  4  1  0
  2  5  1  0
  5  6  1  0
  6  7  1  0
  7  8  1  0
  8  9  1  0
  9 10  1  0
 10 11  1  0
 11 12  1  0
 12 13  1  0
 13 14  1  0
 14 15  1  0
 15 10  1  0
M  END
>  <ref_pdb>  (805) 
A4874a

>  <subsites>  (805) 
1 - Active Site

>  <HIPPO Compound ID>  (805) 
13863

>  <energy_score>  (805) 
-19.699622

>  <fragmenstein_mode>  (805) 
expansion

>  <scratch_subdir>  (805) 
/opt/xchem-fragalysis-2/maxwin/BulkDock/SCRATCH/512207/C7527-P494

>  <smiles>  (805) 
FC(F)(F)COCCNN1CCCCC1

>  <alias>  (805) 
C7527-P494

>  <ref_mols>  (805) 
A0310a,A4874a

>  <inspiration_score>  (805) 
None

>  <tags>  (805) 
BulkDock Fragalysis export,fragmenstein_placed,openbind_a71ev2a_c1_knitwork_impure,openbind_a71ev2a_c1_scaffolds

>  <fragmenstein_outcome>  (805) 
acceptable

>  <fragmenstein_error>  (805) 


>  <distance_score>  (805) 
0.820105

>  <inchikey>  (805) 
OOBPFSHUNCZUBY-UHFFFAOYSA-N

>  <name>  (805) 
C7527-P494

>  <HIPPO Pose ID>  (805) 
411364

>  <Energy>  (805) 
107.745202

>  <exports>  (805) 
['/opt/xchem-fragalysis-2/maxwin/BulkDock/OUTPUTS/openbind_a71ev2a_c1_knitwork_impure_165VXJF.sdf', '/opt/xchem-fragalysis-2/maxwin/BulkDock/OUTPUTS/openbind_a71ev2a_c1_knitwork_impure_1B07QS4.sdf', '/opt/xchem-fragalysis-2/maxwin/BulkDock/OUTPUTS/openbind_a71ev2a_c1_knitwork_impure_1B07X5R.sdf', '/opt/xchem-fragalysis-2/maxwin/openbind-hippo/a71ev2a/openbind_a71ev2a_c1_scaffold_products.sdf', '/opt/xchem-fragalysis-2/maxwin/openbind-hippo/a71ev2a/cycle_01/bulkdock/openbind_a71ev2a_c1_scaffold_products.sdf', '/opt/xchem-fragalysis-2/maxwin/openbind-hippo/a71ev2a/cycle_01/bulkdock/openbind_a71ev2a_c1_scaffolds.sdf']

>  <fragmenstein_runtime>  (805) 
4.977347

$$$$
C4728-P455
     RDKit          3D

  9  9  0  0  0  0  0  0  0  0999 V2000
    7.9116   11.2610   25.6197 O   0  0  0  0  0  0  0  0  0  0  0  0
    7.6485   12.3577   25.1325 C   0  0  0  0  0  0  0  0  0  0  0  0
    8.6958   13.3555   24.7186 C   0  0  0  0  0  0  0  0  0  0  0  0
    8.5987   13.5806   23.2166 C   0  0  0  0  0  0  0  0  0  0  0  0
    9.4508   14.6709   22.7657 N   0  0  0  0  0  0  0  0  0  0  0  0
   10.8962   14.4207   22.9032 C   0  0  0  0  0  0  0  0  0  0  0  0
   11.5032   14.8892   21.6337 C   0  0  0  0  0  0  0  0  0  0  0  0
   10.5514   15.1914   20.7501 C   0  0  0  0  0  0  0  0  0  0  0  0
    9.2055   15.0278   21.3510 C   0  0  0  0  0  0  0  0  0  0  0  0
  1  2  2  0
  2  3  1  0
  3  4  1  0
  4  5  1  0
  5  6  1  0
  6  7  1  0
  7  8  2  0
  8  9  1  0
  9  5  1  0
M  END
>  <ref_pdb>  (806) 
A4746a

>  <subsites>  (806) 
1 - Active Site

>  <HIPPO Compound ID>  (806) 
8416

>  <energy_score>  (806) 
-12.442904

>  <fragmenstein_mode>  (806) 
expansion

>  <scratch_subdir>  (806) 
/opt/xchem-fragalysis-2/maxwin/BulkDock/SCRATCH/512207/C4728-P455

>  <smiles>  (806) 
O=CCCN1CC=CC1

>  <alias>  (806) 
C4728-P455

>  <ref_mols>  (806) 
A1775a,A4746a

>  <inspiration_score>  (806) 
None

>  <tags>  (806) 
BulkDock Fragalysis export,fragmenstein_placed,openbind_a71ev2a_c1_knitwork_impure,openbind_a71ev2a_c1_scaffolds

>  <fragmenstein_outcome>  (806) 
acceptable

>  <fragmenstein_error>  (806) 


>  <distance_score>  (806) 
0.804885

>  <inchikey>  (806) 
IEDUUXRRBWHCQW-UHFFFAOYSA-N

>  <name>  (806) 
C4728-P455

>  <HIPPO Pose ID>  (806) 
411447

>  <Energy>  (806) 
-1.272139

>  <exports>  (806) 
['/opt/xchem-fragalysis-2/maxwin/BulkDock/OUTPUTS/openbind_a71ev2a_c1_knitwork_impure_165VXJF.sdf', '/opt/xchem-fragalysis-2/maxwin/BulkDock/OUTPUTS/openbind_a71ev2a_c1_knitwork_impure_1B07QS4.sdf', '/opt/xchem-fragalysis-2/maxwin/BulkDock/OUTPUTS/openbind_a71ev2a_c1_knitwork_impure_1B07X5R.sdf', '/opt/xchem-fragalysis-2/maxwin/openbind-hippo/a71ev2a/openbind_a71ev2a_c1_scaffold_products.sdf', '/opt/xchem-fragalysis-2/maxwin/openbind-hippo/a71ev2a/cycle_01/bulkdock/openbind_a71ev2a_c1_scaffold_products.sdf', '/opt/xchem-fragalysis-2/maxwin/openbind-hippo/a71ev2a/cycle_01/bulkdock/openbind_a71ev2a_c1_scaffolds.sdf']

>  <fragmenstein_runtime>  (806) 
1.028538

$$$$
C18173-P405
     RDKit          3D

 13 13  0  0  0  0  0  0  0  0999 V2000
   11.8745   16.3218   21.6059 C   0  0  0  0  0  0  0  0  0  0  0  0
   11.0182   15.3216   20.8358 C   0  0  0  0  0  0  0  0  0  0  0  0
   10.9518   15.7103   19.3580 C   0  0  0  0  0  0  0  0  0  0  0  0
    9.6002   15.2143   21.4169 C   0  0  0  0  0  0  0  0  0  0  0  0
    9.5649   14.6246   22.8309 C   0  0  0  0  0  0  0  0  0  0  0  0
    8.1403   14.2351   23.1996 C   0  0  0  0  0  0  0  0  0  0  0  0
    8.0274   13.5411   24.5438 C   0  0  0  0  0  0  0  0  0  0  0  0
    7.7869   14.1833   25.5654 O   0  0  0  0  0  0  0  0  0  0  0  0
    8.1315   12.0895   24.5905 C   0  0  0  0  0  0  0  0  0  0  0  0
    7.4265   11.2103   25.4400 C   0  0  0  0  0  0  0  0  0  0  0  0
    7.7044    9.9255   25.2046 N   0  0  0  0  0  0  0  0  0  0  0  0
    8.6485    9.9760   24.2465 N   0  0  0  0  0  0  0  0  0  0  0  0
    8.9114   11.2498   23.8227 C   0  0  0  0  0  0  0  0  0  0  0  0
  1  2  1  0
  2  3  1  0
  2  4  1  0
  4  5  1  0
  5  6  1  0
  6  7  1  0
  7  8  2  0
  7  9  1  0
  9 10  1  0
 10 11  2  0
 11 12  1  0
 12 13  1  0
 13  9  2  0
M  END
>  <ref_pdb>  (807) 
A4570a

>  <subsites>  (807) 
1 - Active Site

>  <HIPPO Compound ID>  (807) 
6131

>  <energy_score>  (807) 
-14.381305

>  <fragmenstein_mode>  (807) 
expansion

>  <scratch_subdir>  (807) 
/opt/xchem-fragalysis-2/maxwin/BulkDock/SCRATCH/512207/C18173-P405

>  <smiles>  (807) 
CC(C)CCCC(=O)c1cn[nH]c1

>  <alias>  (807) 
C18173-P405

>  <ref_mols>  (807) 
A0556a,A4570a

>  <inspiration_score>  (807) 
None

>  <tags>  (807) 
BulkDock Fragalysis export,fragmenstein_placed,openbind_a71ev2a_c1_knitwork_impure,openbind_a71ev2a_c1_scaffolds

>  <fragmenstein_outcome>  (807) 
acceptable

>  <fragmenstein_error>  (807) 


>  <distance_score>  (807) 
0.631523

>  <inchikey>  (807) 
LXVIPPHHTAYJIW-UHFFFAOYSA-N

>  <name>  (807) 
C18173-P405

>  <HIPPO Pose ID>  (807) 
411562

>  <Energy>  (807) 
25.711217

>  <exports>  (807) 
['/opt/xchem-fragalysis-2/maxwin/BulkDock/OUTPUTS/openbind_a71ev2a_c1_knitwork_impure_165VXJF.sdf', '/opt/xchem-fragalysis-2/maxwin/BulkDock/OUTPUTS/openbind_a71ev2a_c1_knitwork_impure_1B07QS4.sdf', '/opt/xchem-fragalysis-2/maxwin/BulkDock/OUTPUTS/openbind_a71ev2a_c1_knitwork_impure_1B07X5R.sdf', '/opt/xchem-fragalysis-2/maxwin/openbind-hippo/a71ev2a/openbind_a71ev2a_c1_scaffold_products.sdf', '/opt/xchem-fragalysis-2/maxwin/openbind-hippo/a71ev2a/cycle_01/bulkdock/openbind_a71ev2a_c1_scaffold_products.sdf', '/opt/xchem-fragalysis-2/maxwin/openbind-hippo/a71ev2a/cycle_01/bulkdock/openbind_a71ev2a_c1_scaffolds.sdf']

>  <fragmenstein_runtime>  (807) 
7.877675

$$$$
C18207-P405
     RDKit          3D

 14 14  0  0  0  0  0  0  0  0999 V2000
   11.7593   16.6156   21.7833 C   0  0  0  0  0  0  0  0  0  0  0  0
   10.8046   15.5737   21.1982 C   0  0  0  0  0  0  0  0  0  0  0  0
   10.8743   15.6657   19.6616 C   0  0  0  0  0  0  0  0  0  0  0  0
   11.2772   14.1977   21.6635 C   0  0  0  0  0  0  0  0  0  0  0  0
    9.3500   15.8574   21.6589 C   0  0  0  0  0  0  0  0  0  0  0  0
    9.0147   15.4437   23.1067 C   0  0  0  0  0  0  0  0  0  0  0  0
    8.0436   14.2658   23.1321 C   0  0  0  0  0  0  0  0  0  0  0  0
    7.9974   13.5369   24.4678 C   0  0  0  0  0  0  0  0  0  0  0  0
    7.6511   14.1131   25.4977 O   0  0  0  0  0  0  0  0  0  0  0  0
    8.3039   12.1113   24.4651 C   0  0  0  0  0  0  0  0  0  0  0  0
    9.1874   11.3974   23.6304 C   0  0  0  0  0  0  0  0  0  0  0  0
    9.1862   10.0878   23.8681 N   0  0  0  0  0  0  0  0  0  0  0  0
    8.3415    9.9549   24.8964 N   0  0  0  0  0  0  0  0  0  0  0  0
    7.7761   11.1345   25.2877 C   0  0  0  0  0  0  0  0  0  0  0  0
  1  2  1  0
  2  3  1  0
  2  4  1  0
  2  5  1  0
  5  6  1  0
  6  7  1  0
  7  8  1  0
  8  9  2  0
  8 10  1  0
 10 11  1  0
 11 12  2  0
 12 13  1  0
 13 14  1  0
 14 10  2  0
M  END
>  <ref_pdb>  (808) 
A4570a

>  <subsites>  (808) 
1 - Active Site

>  <HIPPO Compound ID>  (808) 
1382

>  <energy_score>  (808) 
-25.394633

>  <fragmenstein_mode>  (808) 
expansion

>  <scratch_subdir>  (808) 
/opt/xchem-fragalysis-2/maxwin/BulkDock/SCRATCH/512207/C18207-P405

>  <smiles>  (808) 
CC(C)(C)CCCC(=O)c1cn[nH]c1

>  <alias>  (808) 
C18207-P405

>  <ref_mols>  (808) 
A0556a,A4570a

>  <inspiration_score>  (808) 
None

>  <tags>  (808) 
BulkDock Fragalysis export,fragmenstein_placed,openbind_a71ev2a_c1_knitwork_impure,openbind_a71ev2a_c1_scaffolds

>  <fragmenstein_outcome>  (808) 
acceptable

>  <fragmenstein_error>  (808) 


>  <distance_score>  (808) 
0.836988

>  <inchikey>  (808) 
VURFZHBQCFSQNK-UHFFFAOYSA-N

>  <name>  (808) 
C18207-P405

>  <HIPPO Pose ID>  (808) 
411566

>  <Energy>  (808) 
41.810458

>  <exports>  (808) 
['/opt/xchem-fragalysis-2/maxwin/BulkDock/OUTPUTS/openbind_a71ev2a_c1_knitwork_impure_165VXJF.sdf', '/opt/xchem-fragalysis-2/maxwin/BulkDock/OUTPUTS/openbind_a71ev2a_c1_knitwork_impure_1B07QS4.sdf', '/opt/xchem-fragalysis-2/maxwin/BulkDock/OUTPUTS/openbind_a71ev2a_c1_knitwork_impure_1B07X5R.sdf', '/opt/xchem-fragalysis-2/maxwin/openbind-hippo/a71ev2a/openbind_a71ev2a_c1_scaffold_products.sdf', '/opt/xchem-fragalysis-2/maxwin/openbind-hippo/a71ev2a/cycle_01/bulkdock/openbind_a71ev2a_c1_scaffold_products.sdf', '/opt/xchem-fragalysis-2/maxwin/openbind-hippo/a71ev2a/cycle_01/bulkdock/openbind_a71ev2a_c1_scaffolds.sdf']

>  <fragmenstein_runtime>  (808) 
19.743206

$$$$
C4791-P405
     RDKit          3D

  9 10  0  0  0  0  0  0  0  0999 V2000
    7.1210   13.4432   25.6195 C   0  0  0  0  0  0  0  0  0  0  0  0
    8.0864   12.8589   24.8861 C   0  0  0  0  0  0  0  0  0  0  0  0
    8.4477   11.4044   24.5711 C   0  0  0  0  0  0  0  0  0  0  0  0
    7.7621   10.2969   25.0871 C   0  0  0  0  0  0  0  0  0  0  0  0
    8.4072    9.2227   24.5307 C   0  0  0  0  0  0  0  0  0  0  0  0
    9.3854    9.7259   23.7280 N   0  0  0  0  0  0  0  0  0  0  0  0
    9.4411   11.0662   23.7533 N   0  0  0  0  0  0  0  0  0  0  0  0
    8.6904   14.1704   24.4471 C   0  0  0  0  0  0  0  0  0  0  0  0
    7.5887   14.8421   25.2898 C   0  0  0  0  0  0  0  0  0  0  0  0
  1  2  2  0
  2  3  1  0
  3  4  1  0
  4  5  2  0
  5  6  1  0
  6  7  1  0
  2  8  1  0
  8  9  1  0
  9  1  1  0
  7  3  2  0
M  END
>  <ref_pdb>  (809) 
A4570a

>  <subsites>  (809) 
1 - Active Site

>  <HIPPO Compound ID>  (809) 
1401

>  <energy_score>  (809) 
-15.245957

>  <fragmenstein_mode>  (809) 
expansion

>  <scratch_subdir>  (809) 
/opt/xchem-fragalysis-2/maxwin/BulkDock/SCRATCH/512207/C4791-P405

>  <smiles>  (809) 
C1=C(c2cc[nH]n2)CC1

>  <alias>  (809) 
C4791-P405

>  <ref_mols>  (809) 
A0556a,A4570a

>  <inspiration_score>  (809) 
None

>  <tags>  (809) 
BulkDock Fragalysis export,fragmenstein_placed,openbind_a71ev2a_c1_knitwork_impure,openbind_a71ev2a_c1_scaffolds

>  <fragmenstein_outcome>  (809) 
acceptable

>  <fragmenstein_error>  (809) 


>  <distance_score>  (809) 
0.888162

>  <inchikey>  (809) 
OEFMQFVOHCBHLP-UHFFFAOYSA-N

>  <name>  (809) 
C4791-P405

>  <HIPPO Pose ID>  (809) 
411596

>  <Energy>  (809) 
3.564946

>  <exports>  (809) 
['/opt/xchem-fragalysis-2/maxwin/BulkDock/OUTPUTS/openbind_a71ev2a_c1_knitwork_impure_165VXJF.sdf', '/opt/xchem-fragalysis-2/maxwin/BulkDock/OUTPUTS/openbind_a71ev2a_c1_knitwork_impure_1B07QS4.sdf', '/opt/xchem-fragalysis-2/maxwin/BulkDock/OUTPUTS/openbind_a71ev2a_c1_knitwork_impure_1B07X5R.sdf', '/opt/xchem-fragalysis-2/maxwin/openbind-hippo/a71ev2a/openbind_a71ev2a_c1_scaffold_products.sdf', '/opt/xchem-fragalysis-2/maxwin/openbind-hippo/a71ev2a/cycle_01/bulkdock/openbind_a71ev2a_c1_scaffold_products.sdf', '/opt/xchem-fragalysis-2/maxwin/openbind-hippo/a71ev2a/cycle_01/bulkdock/openbind_a71ev2a_c1_scaffolds.sdf']

>  <fragmenstein_runtime>  (809) 
0.608568

$$$$
C15689-P103
     RDKit          3D

 14 16  0  0  0  0  0  0  0  0999 V2000
   14.0780   -6.2120   17.1155 C   0  0  0  0  0  0  0  0  0  0  0  0
   14.0325   -4.8286   17.2157 C   0  0  0  0  0  0  0  0  0  0  0  0
   15.1520   -4.1485   17.6746 C   0  0  0  0  0  0  0  0  0  0  0  0
   16.2914   -4.8771   18.0148 C   0  0  0  0  0  0  0  0  0  0  0  0
   17.3510   -4.2021   18.7535 C   0  0  0  0  0  0  0  0  0  0  0  0
   18.1752   -4.8130   19.6971 C   0  0  0  0  0  0  0  0  0  0  0  0
   18.6418   -3.7743   20.4379 N   0  0  0  0  0  0  0  0  0  0  0  0
   19.2741   -3.7187   21.6350 N   0  0  0  0  0  0  0  0  0  0  0  0
   19.3390   -2.4506   21.9324 C   0  0  0  0  0  0  0  0  0  0  0  0
   18.6663   -1.2763   20.7792 S   0  0  0  0  0  0  0  0  0  0  0  0
   18.2227   -2.6322   19.8419 C   0  0  0  0  0  0  0  0  0  0  0  0
   17.4532   -2.8206   18.8145 N   0  0  0  0  0  0  0  0  0  0  0  0
   16.3610   -6.2293   17.9160 N   0  0  0  0  0  0  0  0  0  0  0  0
   15.2514   -6.8589   17.4693 C   0  0  0  0  0  0  0  0  0  0  0  0
  1  2  2  0
  2  3  1  0
  3  4  2  0
  4  5  1  0
  5  6  2  0
  6  7  1  0
  7  8  1  0
  8  9  2  0
  9 10  1  0
 10 11  1  0
 11 12  2  0
  4 13  1  0
 13 14  2  0
 14  1  1  0
 12  5  1  0
 11  7  1  0
M  END
>  <ref_pdb>  (810) 
A1105b

>  <subsites>  (810) 
2 - A3977/A/202/1

>  <HIPPO Compound ID>  (810) 
3788

>  <energy_score>  (810) 
-71.386529

>  <fragmenstein_mode>  (810) 
expansion

>  <scratch_subdir>  (810) 
/opt/xchem-fragalysis-2/maxwin/BulkDock/SCRATCH/512207/C15689-P103

>  <smiles>  (810) 
c1ccc(-c2cn3ncsc3n2)nc1

>  <alias>  (810) 
C15689-P103

>  <ref_mols>  (810) 
A0202a,A1105b

>  <inspiration_score>  (810) 
None

>  <tags>  (810) 
BulkDock Fragalysis export,fragmenstein_placed,openbind_a71ev2a_c1_knitwork_impure,openbind_a71ev2a_c1_scaffolds

>  <fragmenstein_outcome>  (810) 
acceptable

>  <fragmenstein_error>  (810) 


>  <distance_score>  (810) 
0.814304

>  <inchikey>  (810) 
HEZOJSXHYOLCRB-UHFFFAOYSA-N

>  <name>  (810) 
C15689-P103

>  <HIPPO Pose ID>  (810) 
411692

>  <Energy>  (810) 
42.01975

>  <exports>  (810) 
['/opt/xchem-fragalysis-2/maxwin/BulkDock/OUTPUTS/openbind_a71ev2a_c1_knitwork_impure_165VXJF.sdf', '/opt/xchem-fragalysis-2/maxwin/BulkDock/OUTPUTS/openbind_a71ev2a_c1_knitwork_impure_1B07QS4.sdf', '/opt/xchem-fragalysis-2/maxwin/BulkDock/OUTPUTS/openbind_a71ev2a_c1_knitwork_impure_1B07X5R.sdf', '/opt/xchem-fragalysis-2/maxwin/openbind-hippo/a71ev2a/openbind_a71ev2a_c1_scaffold_products.sdf', '/opt/xchem-fragalysis-2/maxwin/openbind-hippo/a71ev2a/cycle_01/bulkdock/openbind_a71ev2a_c1_scaffold_products.sdf', '/opt/xchem-fragalysis-2/maxwin/openbind-hippo/a71ev2a/cycle_01/bulkdock/openbind_a71ev2a_c1_scaffolds.sdf']

>  <fragmenstein_runtime>  (810) 
3.992905

$$$$
C15690-P103
     RDKit          3D

 14 16  0  0  0  0  0  0  0  0999 V2000
   13.9888   -4.8281   17.2981 C   0  0  0  0  0  0  0  0  0  0  0  0
   14.0821   -6.1867   17.0548 C   0  0  0  0  0  0  0  0  0  0  0  0
   15.2214   -6.9035   17.1883 N   0  0  0  0  0  0  0  0  0  0  0  0
   16.3047   -6.2314   17.6553 C   0  0  0  0  0  0  0  0  0  0  0  0
   16.3032   -4.8803   17.9816 C   0  0  0  0  0  0  0  0  0  0  0  0
   17.3765   -4.2316   18.7089 C   0  0  0  0  0  0  0  0  0  0  0  0
   18.1694   -4.8377   19.6808 C   0  0  0  0  0  0  0  0  0  0  0  0
   18.6354   -3.7887   20.4146 N   0  0  0  0  0  0  0  0  0  0  0  0
   19.2356   -3.7228   21.6268 N   0  0  0  0  0  0  0  0  0  0  0  0
   19.3029   -2.4509   21.9091 C   0  0  0  0  0  0  0  0  0  0  0  0
   18.6712   -1.2878   20.7211 S   0  0  0  0  0  0  0  0  0  0  0  0
   18.2437   -2.6532   19.7900 C   0  0  0  0  0  0  0  0  0  0  0  0
   17.4988   -2.8547   18.7468 N   0  0  0  0  0  0  0  0  0  0  0  0
   15.1177   -4.1685   17.7633 C   0  0  0  0  0  0  0  0  0  0  0  0
  1  2  2  0
  2  3  1  0
  3  4  2  0
  4  5  1  0
  5  6  1  0
  6  7  2  0
  7  8  1  0
  8  9  1  0
  9 10  2  0
 10 11  1  0
 11 12  1  0
 12 13  2  0
  5 14  2  0
 14  1  1  0
 13  6  1  0
 12  8  1  0
M  END
>  <ref_pdb>  (811) 
A1105b

>  <subsites>  (811) 
2 - A3977/A/202/1

>  <HIPPO Compound ID>  (811) 
6658

>  <energy_score>  (811) 
-41.723144

>  <fragmenstein_mode>  (811) 
expansion

>  <scratch_subdir>  (811) 
/opt/xchem-fragalysis-2/maxwin/BulkDock/SCRATCH/512207/C15690-P103

>  <smiles>  (811) 
c1cncc(-c2cn3ncsc3n2)c1

>  <alias>  (811) 
C15690-P103

>  <ref_mols>  (811) 
A0202a,A1105b

>  <inspiration_score>  (811) 
None

>  <tags>  (811) 
BulkDock Fragalysis export,fragmenstein_placed,openbind_a71ev2a_c1_knitwork_impure,openbind_a71ev2a_c1_scaffolds

>  <fragmenstein_outcome>  (811) 
acceptable

>  <fragmenstein_error>  (811) 


>  <distance_score>  (811) 
0.782428

>  <inchikey>  (811) 
NFHSLKKDIQNRKX-UHFFFAOYSA-N

>  <name>  (811) 
C15690-P103

>  <HIPPO Pose ID>  (811) 
411694

>  <Energy>  (811) 
36.686776

>  <exports>  (811) 
['/opt/xchem-fragalysis-2/maxwin/BulkDock/OUTPUTS/openbind_a71ev2a_c1_knitwork_impure_165VXJF.sdf', '/opt/xchem-fragalysis-2/maxwin/BulkDock/OUTPUTS/openbind_a71ev2a_c1_knitwork_impure_1B07QS4.sdf', '/opt/xchem-fragalysis-2/maxwin/BulkDock/OUTPUTS/openbind_a71ev2a_c1_knitwork_impure_1B07X5R.sdf', '/opt/xchem-fragalysis-2/maxwin/openbind-hippo/a71ev2a/openbind_a71ev2a_c1_scaffold_products.sdf', '/opt/xchem-fragalysis-2/maxwin/openbind-hippo/a71ev2a/cycle_01/bulkdock/openbind_a71ev2a_c1_scaffold_products.sdf', '/opt/xchem-fragalysis-2/maxwin/openbind-hippo/a71ev2a/cycle_01/bulkdock/openbind_a71ev2a_c1_scaffolds.sdf']

>  <fragmenstein_runtime>  (811) 
6.97122

$$$$
C7620-P274
     RDKit          3D

 15 16  0  0  0  0  0  0  0  0999 V2000
   11.8095   14.3773   23.5226 C   0  0  0  0  0  0  0  0  0  0  0  0
   10.5762   15.2521   23.4017 C   0  0  0  0  0  0  0  0  0  0  0  0
    9.5146   14.6233   22.5081 C   0  0  0  0  0  0  0  0  0  0  0  0
    8.2441   13.7376   23.3905 S   0  0  0  0  0  0  0  0  0  0  0  0
    7.3971   13.0791   22.4184 O   0  0  0  0  0  0  0  0  0  0  0  0
    7.6945   14.6316   24.3871 O   0  0  0  0  0  0  0  0  0  0  0  0
    9.1277   12.5654   24.2398 N   0  0  0  0  0  0  0  0  0  0  0  0
    8.5066   11.2049   24.3871 C   0  0  0  0  0  0  0  0  0  0  0  0
    7.5325   11.0736   25.5495 C   0  0  1  0  0  0  0  0  0  0  0  0
    6.5432   12.1917   25.8068 C   0  0  0  0  0  0  0  0  0  0  0  0
    5.4708   11.5599   26.6797 C   0  0  0  0  0  0  0  0  0  0  0  0
    5.7963   10.0777   26.7058 C   0  0  0  0  0  0  0  0  0  0  0  0
    6.7316    9.8460   25.6066 N   0  0  0  0  0  0  0  0  0  0  0  0
    8.5563   10.2630   23.2002 C   0  0  0  0  0  0  0  0  0  0  0  0
    9.4437    9.9865   24.2942 C   0  0  0  0  0  0  0  0  0  0  0  0
  1  2  1  0
  2  3  1  0
  3  4  1  0
  4  5  2  0
  4  6  2  0
  4  7  1  0
  7  8  1  0
  9  8  1  6
  9 10  1  0
 10 11  1  0
 11 12  1  0
 12 13  1  0
  8 14  1  0
 14 15  1  0
 15  8  1  0
 13  9  1  0
M  END
>  <ref_pdb>  (812) 
A4031a

>  <subsites>  (812) 
1 - Active Site

>  <HIPPO Compound ID>  (812) 
10400

>  <energy_score>  (812) 
-55.838919

>  <fragmenstein_mode>  (812) 
expansion

>  <scratch_subdir>  (812) 
/opt/xchem-fragalysis-2/maxwin/BulkDock/SCRATCH/512207/C7620-P274

>  <smiles>  (812) 
CCCS(=O)(=O)NC1([C@H]2CCCN2)CC1

>  <alias>  (812) 
C7620-P274

>  <ref_mols>  (812) 
A4031a,A0719a

>  <inspiration_score>  (812) 
None

>  <tags>  (812) 
BulkDock Fragalysis export,fragmenstein_placed,openbind_a71ev2a_c1_knitwork_impure,openbind_a71ev2a_c1_scaffolds

>  <fragmenstein_outcome>  (812) 
acceptable

>  <fragmenstein_error>  (812) 


>  <distance_score>  (812) 
0.977192

>  <inchikey>  (812) 
CMUPJBQGBXLKHY-UHFFFAOYSA-N

>  <name>  (812) 
C7620-P274

>  <HIPPO Pose ID>  (812) 
411994

>  <Energy>  (812) 
-22.547181

>  <exports>  (812) 
['/opt/xchem-fragalysis-2/maxwin/BulkDock/OUTPUTS/openbind_a71ev2a_c1_knitwork_impure_165VXJF.sdf', '/opt/xchem-fragalysis-2/maxwin/BulkDock/OUTPUTS/openbind_a71ev2a_c1_knitwork_impure_1B07QS4.sdf', '/opt/xchem-fragalysis-2/maxwin/BulkDock/OUTPUTS/openbind_a71ev2a_c1_knitwork_impure_1B07X5R.sdf', '/opt/xchem-fragalysis-2/maxwin/openbind-hippo/a71ev2a/openbind_a71ev2a_c1_scaffold_products.sdf', '/opt/xchem-fragalysis-2/maxwin/openbind-hippo/a71ev2a/cycle_01/bulkdock/openbind_a71ev2a_c1_scaffold_products.sdf', '/opt/xchem-fragalysis-2/maxwin/openbind-hippo/a71ev2a/cycle_01/bulkdock/openbind_a71ev2a_c1_scaffolds.sdf']

>  <fragmenstein_runtime>  (812) 
7.889199

$$$$
C7674-P274
     RDKit          3D

 13 14  0  0  0  0  0  0  0  0999 V2000
    5.6969   15.8268   21.9322 N   0  0  0  0  0  0  0  0  0  0  0  0
    6.8679   14.9013   22.6959 S   0  0  0  0  0  0  0  0  0  0  0  0
    8.0840   15.6714   22.5935 O   0  0  0  0  0  0  0  0  0  0  0  0
    6.7535   13.5770   22.1211 O   0  0  0  0  0  0  0  0  0  0  0  0
    6.2552   14.9453   24.3811 C   0  0  0  0  0  0  0  0  0  0  0  0
    7.1531   14.2671   25.4173 C   0  0  0  0  0  0  0  0  0  0  0  0
    7.1682   12.7346   25.2604 C   0  0  0  0  0  0  0  0  0  0  0  0
    8.4534   12.0599   25.0394 N   0  0  0  0  0  0  0  0  0  0  0  0
    9.3801   12.9288   24.2933 C   0  0  0  0  0  0  0  0  0  0  0  0
   10.2479   12.0101   23.4862 C   0  0  0  0  0  0  0  0  0  0  0  0
    9.3912   10.8273   23.1900 C   0  0  1  0  0  0  0  0  0  0  0  0
    9.2233    9.6613   24.0854 C   0  0  0  0  0  0  0  0  0  0  0  0
    8.2856   10.8246   24.2089 C   0  0  1  0  0  0  0  0  0  0  0  0
  1  2  1  0
  2  3  2  0
  2  4  2  0
  2  5  1  0
  5  6  1  0
  6  7  1  0
  7  8  1  0
  8  9  1  0
  9 10  1  0
 11 10  1  1
 11 12  1  0
 13 12  1  1
 13  8  1  0
 13 11  1  0
M  END
>  <ref_pdb>  (813) 
A4031a

>  <subsites>  (813) 
1 - Active Site

>  <HIPPO Compound ID>  (813) 
2073

>  <energy_score>  (813) 
-72.486049

>  <fragmenstein_mode>  (813) 
expansion

>  <scratch_subdir>  (813) 
/opt/xchem-fragalysis-2/maxwin/BulkDock/SCRATCH/512207/C7674-P274

>  <smiles>  (813) 
NS(=O)(=O)CCCN1CC[C@H]2C[C@H]21

>  <alias>  (813) 
C7674-P274

>  <ref_mols>  (813) 
A4031a,A0719a

>  <inspiration_score>  (813) 
None

>  <tags>  (813) 
BulkDock Fragalysis export,fragmenstein_placed,openbind_a71ev2a_c1_knitwork_impure,openbind_a71ev2a_c1_scaffolds

>  <fragmenstein_outcome>  (813) 
acceptable

>  <fragmenstein_error>  (813) 


>  <distance_score>  (813) 
0.897404

>  <inchikey>  (813) 
BNTNXENXQWHSKP-UHFFFAOYSA-N

>  <name>  (813) 
C7674-P274

>  <HIPPO Pose ID>  (813) 
412024

>  <Energy>  (813) 
-57.549798

>  <exports>  (813) 
['/opt/xchem-fragalysis-2/maxwin/BulkDock/OUTPUTS/openbind_a71ev2a_c1_knitwork_impure_165VXJF.sdf', '/opt/xchem-fragalysis-2/maxwin/BulkDock/OUTPUTS/openbind_a71ev2a_c1_knitwork_impure_1B07QS4.sdf', '/opt/xchem-fragalysis-2/maxwin/BulkDock/OUTPUTS/openbind_a71ev2a_c1_knitwork_impure_1B07X5R.sdf', '/opt/xchem-fragalysis-2/maxwin/openbind-hippo/a71ev2a/openbind_a71ev2a_c1_scaffold_products.sdf', '/opt/xchem-fragalysis-2/maxwin/openbind-hippo/a71ev2a/cycle_01/bulkdock/openbind_a71ev2a_c1_scaffold_products.sdf', '/opt/xchem-fragalysis-2/maxwin/openbind-hippo/a71ev2a/cycle_01/bulkdock/openbind_a71ev2a_c1_scaffolds.sdf']

>  <fragmenstein_runtime>  (813) 
3.131732

$$$$
C1266-P536
     RDKit          3D

 16 18  0  0  0  0  0  0  0  0999 V2000
    9.1436   15.0476   21.7601 C   0  0  0  0  0  0  0  0  0  0  0  0
    9.0805   14.7913   23.0848 C   0  0  0  0  0  0  0  0  0  0  0  0
    7.8414   14.1756   23.7106 C   0  0  2  0  0  0  0  0  0  0  0  0
    7.3176   15.0486   24.7749 N   0  0  0  0  0  0  0  0  0  0  0  0
    6.0307   14.5159   25.2322 C   0  0  0  0  0  0  0  0  0  0  0  0
    6.1680   13.1460   25.9008 C   0  0  0  0  0  0  0  0  0  0  0  0
    7.1122   12.2224   25.1715 C   0  0  0  0  0  0  0  0  0  0  0  0
    7.1183   10.8566   25.4860 C   0  0  0  0  0  0  0  0  0  0  0  0
    7.9903    9.9937   24.8301 C   0  0  0  0  0  0  0  0  0  0  0  0
    8.8985   10.4900   23.9020 C   0  0  0  0  0  0  0  0  0  0  0  0
    8.9137   11.8494   23.5972 C   0  0  0  0  0  0  0  0  0  0  0  0
    8.0040   12.7318   24.2006 C   0  0  0  0  0  0  0  0  0  0  0  0
   10.2639   15.0738   23.9778 C   0  0  0  0  0  0  0  0  0  0  0  0
   11.5769   15.1486   23.1997 C   0  0  0  0  0  0  0  0  0  0  0  0
   11.4476   16.0740   21.9967 C   0  0  0  0  0  0  0  0  0  0  0  0
   10.3490   15.5974   21.0499 C   0  0  0  0  0  0  0  0  0  0  0  0
  1  2  2  0
  3  2  1  1
  3  4  1  0
  4  5  1  0
  5  6  1  0
  6  7  1  0
  7  8  2  0
  8  9  1  0
  9 10  2  0
 10 11  1  0
 11 12  2  0
  2 13  1  0
 13 14  1  0
 14 15  1  0
 15 16  1  0
 16  1  1  0
 12  3  1  0
 12  7  1  0
M  END
>  <ref_pdb>  (814) 
A4943b

>  <subsites>  (814) 
1 - Active Site

>  <HIPPO Compound ID>  (814) 
28573

>  <energy_score>  (814) 
-37.314568

>  <fragmenstein_mode>  (814) 
expansion

>  <scratch_subdir>  (814) 
/opt/xchem-fragalysis-2/maxwin/BulkDock/SCRATCH/512207/C1266-P536

>  <smiles>  (814) 
C1=C([C@@H]2NCCc3ccccc32)CCCC1

>  <alias>  (814) 
C1266-P536

>  <ref_mols>  (814) 
A4943b,A2293a

>  <inspiration_score>  (814) 
None

>  <tags>  (814) 
BulkDock Fragalysis export,fragmenstein_placed,openbind_a71ev2a_c1_knitwork_impure,openbind_a71ev2a_c1_scaffolds

>  <fragmenstein_outcome>  (814) 
acceptable

>  <fragmenstein_error>  (814) 


>  <distance_score>  (814) 
0.899317

>  <inchikey>  (814) 
QUJOMQBGHHSWRI-UHFFFAOYSA-N

>  <name>  (814) 
C1266-P536

>  <HIPPO Pose ID>  (814) 
412053

>  <Energy>  (814) 
33.124821

>  <exports>  (814) 
['/opt/xchem-fragalysis-2/maxwin/BulkDock/OUTPUTS/openbind_a71ev2a_c1_knitwork_impure_165VXJF.sdf', '/opt/xchem-fragalysis-2/maxwin/BulkDock/OUTPUTS/openbind_a71ev2a_c1_knitwork_impure_1B07QS4.sdf', '/opt/xchem-fragalysis-2/maxwin/BulkDock/OUTPUTS/openbind_a71ev2a_c1_knitwork_impure_1B07X5R.sdf', '/opt/xchem-fragalysis-2/maxwin/openbind-hippo/a71ev2a/openbind_a71ev2a_c1_scaffold_products.sdf', '/opt/xchem-fragalysis-2/maxwin/openbind-hippo/a71ev2a/cycle_01/bulkdock/openbind_a71ev2a_c1_scaffold_products.sdf', '/opt/xchem-fragalysis-2/maxwin/openbind-hippo/a71ev2a/cycle_01/bulkdock/openbind_a71ev2a_c1_scaffolds.sdf']

>  <fragmenstein_runtime>  (814) 
16.210008

$$$$
C1281-P536
     RDKit          3D

 16 18  0  0  0  0  0  0  0  0999 V2000
   11.5474   15.7795   21.9812 C   0  0  0  0  0  0  0  0  0  0  0  0
   11.5571   15.4337   23.2754 C   0  0  0  0  0  0  0  0  0  0  0  0
   10.3434   14.9872   24.0310 C   0  0  0  0  0  0  0  0  0  0  0  0
    9.0325   15.0875   23.2307 C   0  0  2  0  0  0  0  0  0  0  0  0
    7.8530   14.2686   23.8411 C   0  0  2  0  0  0  0  0  0  0  0  0
    7.3490   15.0317   25.0081 N   0  0  0  0  0  0  0  0  0  0  0  0
    6.0488   14.4933   25.4068 C   0  0  0  0  0  0  0  0  0  0  0  0
    6.1604   13.0685   25.9413 C   0  0  0  0  0  0  0  0  0  0  0  0
    7.1316   12.2131   25.1632 C   0  0  0  0  0  0  0  0  0  0  0  0
    7.1584   10.8337   25.4253 C   0  0  0  0  0  0  0  0  0  0  0  0
    8.0515   10.0127   24.7510 C   0  0  0  0  0  0  0  0  0  0  0  0
    8.9537   10.5674   23.8535 C   0  0  0  0  0  0  0  0  0  0  0  0
    8.9493   11.9417   23.6045 C   0  0  0  0  0  0  0  0  0  0  0  0
    8.0245   12.7912   24.2247 C   0  0  0  0  0  0  0  0  0  0  0  0
    9.2267   14.8376   21.7212 C   0  0  0  0  0  0  0  0  0  0  0  0
   10.3220   15.7225   21.1227 C   0  0  0  0  0  0  0  0  0  0  0  0
  1  2  2  0
  2  3  1  0
  4  3  1  1
  4  5  1  0
  5  6  1  1
  6  7  1  0
  7  8  1  0
  8  9  1  0
  9 10  2  0
 10 11  1  0
 11 12  2  0
 12 13  1  0
 13 14  2  0
  4 15  1  0
 15 16  1  0
 16  1  1  0
 14  5  1  0
 14  9  1  0
M  END
>  <ref_pdb>  (815) 
A4943b

>  <subsites>  (815) 
1 - Active Site

>  <HIPPO Compound ID>  (815) 
1281

>  <energy_score>  (815) 
-20.622673

>  <fragmenstein_mode>  (815) 
expansion

>  <scratch_subdir>  (815) 
/opt/xchem-fragalysis-2/maxwin/BulkDock/SCRATCH/512207/C1281-P536

>  <smiles>  (815) 
C1=CC[C@H]([C@@H]2NCCc3ccccc32)CC1

>  <alias>  (815) 
C1281-P536

>  <ref_mols>  (815) 
A4943b,A2293a

>  <inspiration_score>  (815) 
None

>  <tags>  (815) 
BulkDock Fragalysis export,fragmenstein_placed,openbind_a71ev2a_c1_knitwork_impure,openbind_a71ev2a_c1_scaffolds

>  <fragmenstein_outcome>  (815) 
acceptable

>  <fragmenstein_error>  (815) 


>  <distance_score>  (815) 
0.997549

>  <inchikey>  (815) 
GFYOTNKFYIETKD-UHFFFAOYSA-N

>  <name>  (815) 
C1281-P536

>  <HIPPO Pose ID>  (815) 
412056

>  <Energy>  (815) 
49.835674

>  <exports>  (815) 
['/opt/xchem-fragalysis-2/maxwin/BulkDock/OUTPUTS/openbind_a71ev2a_c1_knitwork_impure_165VXJF.sdf', '/opt/xchem-fragalysis-2/maxwin/BulkDock/OUTPUTS/openbind_a71ev2a_c1_knitwork_impure_1B07QS4.sdf', '/opt/xchem-fragalysis-2/maxwin/BulkDock/OUTPUTS/openbind_a71ev2a_c1_knitwork_impure_1B07X5R.sdf', '/opt/xchem-fragalysis-2/maxwin/openbind-hippo/a71ev2a/openbind_a71ev2a_c1_scaffold_products.sdf', '/opt/xchem-fragalysis-2/maxwin/openbind-hippo/a71ev2a/cycle_01/bulkdock/openbind_a71ev2a_c1_scaffold_products.sdf', '/opt/xchem-fragalysis-2/maxwin/openbind-hippo/a71ev2a/cycle_01/bulkdock/openbind_a71ev2a_c1_scaffolds.sdf']

>  <fragmenstein_runtime>  (815) 
16.277321

$$$$
C1627-P182
     RDKit          3D

 16 16  0  0  0  0  0  0  0  0999 V2000
    7.1182    9.5474   25.1346 C   0  0  0  0  0  0  0  0  0  0  0  0
    6.9722   10.7314   26.0025 C   0  0  0  0  0  0  0  0  0  0  0  0
    7.6464   11.8508   25.7391 C   0  0  0  0  0  0  0  0  0  0  0  0
    8.5881   11.9185   24.5737 C   0  0  0  0  0  0  0  0  0  0  0  0
    9.6926   12.9718   24.5916 C   0  0  2  0  0  0  0  0  0  0  0  0
    9.1796   14.2795   25.1414 C   0  0  0  0  0  0  0  0  0  0  0  0
    7.9507   14.8026   24.4232 C   0  0  0  0  0  0  0  0  0  0  0  0
   10.3196   12.8937   23.1867 C   0  0  0  0  0  0  0  0  0  0  0  0
   10.1465   11.9365   22.5506 O   0  0  0  0  0  0  0  0  0  0  0  0
   11.1728   14.1334   22.9029 N   0  0  0  0  0  0  0  0  0  0  0  0
   11.9189   14.5028   21.7374 C   0  0  0  0  0  0  0  0  0  0  0  0
   10.9818   15.1586   20.8007 C   0  0  0  0  0  0  0  0  0  0  0  0
   10.8962   15.0432   19.4358 C   0  0  0  0  0  0  0  0  0  0  0  0
    9.9242   15.8907   18.9923 O   0  0  0  0  0  0  0  0  0  0  0  0
    9.4653   16.4806   20.1339 C   0  0  0  0  0  0  0  0  0  0  0  0
   10.0344   16.0564   21.2350 N   0  0  0  0  0  0  0  0  0  0  0  0
  1  2  1  0
  2  3  2  3
  3  4  1  0
  5  4  1  6
  5  6  1  0
  6  7  1  0
  5  8  1  0
  8  9  2  0
  8 10  1  0
 10 11  1  0
 11 12  1  0
 12 13  2  0
 13 14  1  0
 14 15  1  0
 15 16  2  0
 16 12  1  0
M  END
>  <ref_pdb>  (816) 
A3435a

>  <subsites>  (816) 
1 - Active Site

>  <HIPPO Compound ID>  (816) 
15352

>  <energy_score>  (816) 
-5.672686

>  <fragmenstein_mode>  (816) 
expansion

>  <scratch_subdir>  (816) 
/opt/xchem-fragalysis-2/maxwin/BulkDock/SCRATCH/512207/C1627-P182

>  <smiles>  (816) 
CC=CC[C@H](CC)C(=O)NCc1cocn1

>  <alias>  (816) 
C1627-P182

>  <ref_mols>  (816) 
A1778a,A3435a

>  <inspiration_score>  (816) 
None

>  <tags>  (816) 
BulkDock Fragalysis export,fragmenstein_placed,openbind_a71ev2a_c1_knitwork_impure,openbind_a71ev2a_c1_scaffolds

>  <fragmenstein_outcome>  (816) 
acceptable

>  <fragmenstein_error>  (816) 


>  <distance_score>  (816) 
0.949738

>  <inchikey>  (816) 
LIVRICROYPTWRS-UHFFFAOYSA-N

>  <name>  (816) 
C1627-P182

>  <HIPPO Pose ID>  (816) 
412208

>  <Energy>  (816) 
31.848005

>  <exports>  (816) 
['/opt/xchem-fragalysis-2/maxwin/BulkDock/OUTPUTS/openbind_a71ev2a_c1_knitwork_impure_165VXJF.sdf', '/opt/xchem-fragalysis-2/maxwin/BulkDock/OUTPUTS/openbind_a71ev2a_c1_knitwork_impure_1B07QS4.sdf', '/opt/xchem-fragalysis-2/maxwin/BulkDock/OUTPUTS/openbind_a71ev2a_c1_knitwork_impure_1B07X5R.sdf', '/opt/xchem-fragalysis-2/maxwin/openbind-hippo/a71ev2a/openbind_a71ev2a_c1_scaffold_products.sdf', '/opt/xchem-fragalysis-2/maxwin/openbind-hippo/a71ev2a/cycle_01/bulkdock/openbind_a71ev2a_c1_scaffold_products.sdf', '/opt/xchem-fragalysis-2/maxwin/openbind-hippo/a71ev2a/cycle_01/bulkdock/openbind_a71ev2a_c1_scaffolds.sdf']

>  <fragmenstein_runtime>  (816) 
2.632074

$$$$
C24493-P77
     RDKit          3D

 14 14  0  0  0  0  0  0  0  0999 V2000
    5.3279   15.0040   22.7621 O   0  0  0  0  0  0  0  0  0  0  0  0
    6.7288   14.6459   22.8094 S   0  0  0  0  0  0  0  0  0  0  0  0
    7.1985   13.3699   22.3091 O   0  0  0  0  0  0  0  0  0  0  0  0
    7.3150   14.9602   24.4333 C   0  0  0  0  0  0  0  0  0  0  0  0
    7.2228   13.7321   25.2530 C   0  0  0  0  0  0  0  0  0  0  0  0
    7.5957   14.0329   26.5296 F   0  0  0  0  0  0  0  0  0  0  0  0
    8.0462   12.7421   24.8507 F   0  0  0  0  0  0  0  0  0  0  0  0
    5.9764   13.2324   25.3430 F   0  0  0  0  0  0  0  0  0  0  0  0
    7.5270   15.8562   21.9823 N   0  0  0  0  0  0  0  0  0  0  0  0
    8.7261   15.5554   21.1759 C   0  0  0  0  0  0  0  0  0  0  0  0
   10.0242   15.3276   21.9366 C   0  0  2  0  0  0  0  0  0  0  0  0
   11.2319   14.7552   21.1788 C   0  0  0  0  0  0  0  0  0  0  0  0
   11.4851   13.9726   22.4771 C   0  0  0  0  0  0  0  0  0  0  0  0
   10.0472   14.1184   22.8082 N   0  0  0  0  0  0  0  0  0  0  0  0
  1  2  2  0
  2  3  2  0
  2  4  1  0
  4  5  1  0
  5  6  1  0
  5  7  1  0
  5  8  1  0
  2  9  1  0
  9 10  1  0
 11 10  1  6
 11 12  1  0
 12 13  1  0
 13 14  1  0
 14 11  1  0
M  END
>  <ref_pdb>  (817) 
A0719a

>  <subsites>  (817) 
1 - Active Site

>  <HIPPO Compound ID>  (817) 
6100

>  <energy_score>  (817) 
-32.190197

>  <fragmenstein_mode>  (817) 
expansion

>  <scratch_subdir>  (817) 
/opt/xchem-fragalysis-2/maxwin/BulkDock/SCRATCH/512207/C24493-P77

>  <smiles>  (817) 
O=S(=O)(CC(F)(F)F)NC[C@@H]1CCN1

>  <alias>  (817) 
C24493-P77

>  <ref_mols>  (817) 
A0719a,A4715a

>  <inspiration_score>  (817) 
None

>  <tags>  (817) 
BulkDock Fragalysis export,fragmenstein_placed,openbind_a71ev2a_c1_knitwork_impure,openbind_a71ev2a_c1_scaffolds

>  <fragmenstein_outcome>  (817) 
acceptable

>  <fragmenstein_error>  (817) 


>  <distance_score>  (817) 
0.961394

>  <inchikey>  (817) 
ZUVLOAOUUWQFOU-UHFFFAOYSA-N

>  <name>  (817) 
C24493-P77

>  <HIPPO Pose ID>  (817) 
412271

>  <Energy>  (817) 
-104.3929

>  <exports>  (817) 
['/opt/xchem-fragalysis-2/maxwin/BulkDock/OUTPUTS/openbind_a71ev2a_c1_knitwork_impure_165VXJF.sdf', '/opt/xchem-fragalysis-2/maxwin/BulkDock/OUTPUTS/openbind_a71ev2a_c1_knitwork_impure_1B07QS4.sdf', '/opt/xchem-fragalysis-2/maxwin/BulkDock/OUTPUTS/openbind_a71ev2a_c1_knitwork_impure_1B07X5R.sdf', '/opt/xchem-fragalysis-2/maxwin/openbind-hippo/a71ev2a/openbind_a71ev2a_c1_scaffold_products.sdf', '/opt/xchem-fragalysis-2/maxwin/openbind-hippo/a71ev2a/cycle_01/bulkdock/openbind_a71ev2a_c1_scaffold_products.sdf', '/opt/xchem-fragalysis-2/maxwin/openbind-hippo/a71ev2a/cycle_01/bulkdock/openbind_a71ev2a_c1_scaffolds.sdf']

>  <fragmenstein_runtime>  (817) 
6.386308

$$$$
C4755-P612
     RDKit          3D

 10 11  0  0  0  0  0  0  0  0999 V2000
    6.8808   10.2939   25.3058 C   0  0  0  0  0  0  0  0  0  0  0  0
    7.5842    9.2595   24.8548 N   0  0  0  0  0  0  0  0  0  0  0  0
    8.5321    9.8216   24.0861 N   0  0  0  0  0  0  0  0  0  0  0  0
    8.4542   11.1872   24.0650 C   0  0  0  0  0  0  0  0  0  0  0  0
    7.3725   11.5422   24.8547 C   0  0  0  0  0  0  0  0  0  0  0  0
    6.7830   12.8878   25.1166 C   0  0  2  0  0  0  0  0  0  0  0  0
    7.8400   13.9029   25.1844 N   0  0  0  0  0  0  0  0  0  0  0  0
    7.2342   15.0694   25.8383 C   0  0  0  0  0  0  0  0  0  0  0  0
    6.5506   14.6038   27.1168 C   0  0  0  0  0  0  0  0  0  0  0  0
    5.8895   12.9743   26.7003 S   0  0  0  0  0  0  0  0  0  0  0  0
  1  2  2  0
  2  3  1  0
  3  4  1  0
  4  5  2  0
  6  5  1  1
  6  7  1  0
  7  8  1  0
  8  9  1  0
  9 10  1  0
  5  1  1  0
 10  6  1  0
M  END
>  <ref_pdb>  (818) 
A5394a

>  <subsites>  (818) 
1 - Active Site

>  <HIPPO Compound ID>  (818) 
4756

>  <energy_score>  (818) 
-15.549275

>  <fragmenstein_mode>  (818) 
expansion

>  <scratch_subdir>  (818) 
/opt/xchem-fragalysis-2/maxwin/BulkDock/SCRATCH/512207/C4755-P612

>  <smiles>  (818) 
c1n[nH]cc1[C@@H]1NCCS1

>  <alias>  (818) 
C4755-P612

>  <ref_mols>  (818) 
A5394a,A0556a

>  <inspiration_score>  (818) 
None

>  <tags>  (818) 
BulkDock Fragalysis export,fragmenstein_placed,openbind_a71ev2a_c1_knitwork_impure,openbind_a71ev2a_c1_scaffolds

>  <fragmenstein_outcome>  (818) 
acceptable

>  <fragmenstein_error>  (818) 


>  <distance_score>  (818) 
0.770049

>  <inchikey>  (818) 
MSOXWHJHAGZIKH-UHFFFAOYSA-N

>  <name>  (818) 
C4755-P612

>  <HIPPO Pose ID>  (818) 
413408

>  <Energy>  (818) 
-1.679786

>  <exports>  (818) 
['/opt/xchem-fragalysis-2/maxwin/BulkDock/OUTPUTS/openbind_a71ev2a_c1_knitwork_impure_165VXJF.sdf', '/opt/xchem-fragalysis-2/maxwin/BulkDock/OUTPUTS/openbind_a71ev2a_c1_knitwork_impure_1B07QS4.sdf', '/opt/xchem-fragalysis-2/maxwin/BulkDock/OUTPUTS/openbind_a71ev2a_c1_knitwork_impure_1B07X5R.sdf', '/opt/xchem-fragalysis-2/maxwin/openbind-hippo/a71ev2a/openbind_a71ev2a_c1_scaffold_products.sdf', '/opt/xchem-fragalysis-2/maxwin/openbind-hippo/a71ev2a/cycle_01/bulkdock/openbind_a71ev2a_c1_scaffold_products.sdf', '/opt/xchem-fragalysis-2/maxwin/openbind-hippo/a71ev2a/cycle_01/bulkdock/openbind_a71ev2a_c1_scaffolds.sdf']

>  <fragmenstein_runtime>  (818) 
0.760987

$$$$
C4669-P364
     RDKit          3D

  9  9  0  0  0  0  0  0  0  0999 V2000
    9.2740   10.7367   24.1957 C   0  0  0  0  0  0  0  0  0  0  0  0
    8.3227   11.5972   25.0012 C   0  0  0  0  0  0  0  0  0  0  0  0
    8.5770   13.0655   24.7219 C   0  0  0  0  0  0  0  0  0  0  0  0
    9.5184   13.6347   25.2837 O   0  0  0  0  0  0  0  0  0  0  0  0
    7.6772   13.7368   23.6636 C   0  0  2  0  0  0  0  0  0  0  0  0
    8.0146   15.1644   23.4204 C   0  0  0  0  0  0  0  0  0  0  0  0
    6.9489   15.9422   23.6096 C   0  0  0  0  0  0  0  0  0  0  0  0
    5.7781   15.1318   24.0186 C   0  0  0  0  0  0  0  0  0  0  0  0
    6.2710   13.7444   24.1438 N   0  0  0  0  0  0  0  0  0  0  0  0
  1  2  1  0
  2  3  1  0
  3  4  2  0
  5  3  1  1
  5  6  1  0
  6  7  2  0
  7  8  1  0
  8  9  1  0
  9  5  1  0
M  END
>  <ref_pdb>  (819) 
A4445b

>  <subsites>  (819) 
1 - Active Site

>  <HIPPO Compound ID>  (819) 
82527

>  <energy_score>  (819) 
-16.580241

>  <fragmenstein_mode>  (819) 
expansion

>  <scratch_subdir>  (819) 
/opt/xchem-fragalysis-2/maxwin/BulkDock/SCRATCH/512207/C4669-P364

>  <smiles>  (819) 
CCC(=O)[C@@H]1C=CCN1

>  <alias>  (819) 
C4669-P364

>  <ref_mols>  (819) 
A1775a,A4445b,A0875a

>  <inspiration_score>  (819) 
None

>  <tags>  (819) 
BulkDock Fragalysis export,fragmenstein_placed,openbind_a71ev2a_c1_knitwork_impure,openbind_a71ev2a_c1_scaffolds

>  <fragmenstein_outcome>  (819) 
acceptable

>  <fragmenstein_error>  (819) 


>  <distance_score>  (819) 
0.970757

>  <inchikey>  (819) 
GHOYRUSNPCRDIR-UHFFFAOYSA-N

>  <name>  (819) 
C4669-P364

>  <HIPPO Pose ID>  (819) 
413701

>  <Energy>  (819) 
34.459473

>  <exports>  (819) 
['/opt/xchem-fragalysis-2/maxwin/BulkDock/OUTPUTS/openbind_a71ev2a_c1_knitwork_impure_165VXJF.sdf', '/opt/xchem-fragalysis-2/maxwin/BulkDock/OUTPUTS/openbind_a71ev2a_c1_knitwork_impure_1B07QS4.sdf', '/opt/xchem-fragalysis-2/maxwin/BulkDock/OUTPUTS/openbind_a71ev2a_c1_knitwork_impure_1B07X5R.sdf', '/opt/xchem-fragalysis-2/maxwin/openbind-hippo/a71ev2a/openbind_a71ev2a_c1_scaffold_products.sdf', '/opt/xchem-fragalysis-2/maxwin/openbind-hippo/a71ev2a/cycle_01/bulkdock/openbind_a71ev2a_c1_scaffold_products.sdf', '/opt/xchem-fragalysis-2/maxwin/openbind-hippo/a71ev2a/cycle_01/bulkdock/openbind_a71ev2a_c1_scaffolds.sdf']

>  <fragmenstein_runtime>  (819) 
1.260027

$$$$
C1386-P338
     RDKit          3D

 16 16  0  0  0  0  0  0  0  0999 V2000
   10.7335   15.5871   19.3667 C   0  0  0  0  0  0  0  0  0  0  0  0
   10.5359   15.2084   20.8327 C   0  0  0  0  0  0  0  0  0  0  0  0
   11.5926   15.8925   21.7022 C   0  0  0  0  0  0  0  0  0  0  0  0
    9.1149   15.5659   21.2813 C   0  0  0  0  0  0  0  0  0  0  0  0
    8.8119   15.0120   22.5769 N   0  0  0  0  0  0  0  0  0  0  0  0
    7.9248   13.8053   22.9724 C   0  0  0  0  0  0  0  0  0  0  0  0
    7.2417   13.1214   22.3173 O   0  0  0  0  0  0  0  0  0  0  0  0
    8.0916   13.5879   24.4746 C   0  0  0  0  0  0  0  0  0  0  0  0
    6.7382   13.6802   25.2048 C   0  0  1  0  0  0  0  0  0  0  0  0
    6.5805   12.4726   26.1388 C   0  0  0  0  0  0  0  0  0  0  0  0
    6.4938   15.0287   25.9487 C   0  0  1  0  0  0  0  0  0  0  0  0
    7.4875   15.3216   27.0891 C   0  0  0  0  0  0  0  0  0  0  0  0
    7.1773   16.6663   27.7471 C   0  0  0  0  0  0  0  0  0  0  0  0
    7.0768   17.7863   26.7169 C   0  0  0  0  0  0  0  0  0  0  0  0
    6.0996   17.4657   25.6848 N   0  0  0  0  0  0  0  0  0  0  0  0
    6.4348   16.2282   24.9782 C   0  0  0  0  0  0  0  0  0  0  0  0
  1  2  1  0
  2  3  1  0
  2  4  1  0
  4  5  1  0
  5  6  1  0
  6  7  2  0
  6  8  1  0
  8  9  1  0
  9 10  1  1
  9 11  1  0
 11 12  1  1
 12 13  1  0
 13 14  1  0
 14 15  1  0
 15 16  1  0
 16 11  1  0
M  END
>  <ref_pdb>  (820) 
A4237a

>  <subsites>  (820) 
1 - Active Site

>  <HIPPO Compound ID>  (820) 
15476

>  <energy_score>  (820) 
-31.260542

>  <fragmenstein_mode>  (820) 
expansion

>  <scratch_subdir>  (820) 
/opt/xchem-fragalysis-2/maxwin/BulkDock/SCRATCH/512207/C1386-P338

>  <smiles>  (820) 
CC(C)CNC(=O)C[C@@H](C)[C@H]1CCCNC1

>  <alias>  (820) 
C1386-P338

>  <ref_mols>  (820) 
A4237a,A1778a

>  <inspiration_score>  (820) 
None

>  <tags>  (820) 
BulkDock Fragalysis export,fragmenstein_placed,openbind_a71ev2a_c1_knitwork_impure,openbind_a71ev2a_c1_scaffolds

>  <fragmenstein_outcome>  (820) 
acceptable

>  <fragmenstein_error>  (820) 


>  <distance_score>  (820) 
0.929307

>  <inchikey>  (820) 
USRDLWXXPHNKBB-UHFFFAOYSA-N

>  <name>  (820) 
C1386-P338

>  <HIPPO Pose ID>  (820) 
414172

>  <Energy>  (820) 
7.987006

>  <exports>  (820) 
['/opt/xchem-fragalysis-2/maxwin/BulkDock/OUTPUTS/openbind_a71ev2a_c1_knitwork_impure_165VXJF.sdf', '/opt/xchem-fragalysis-2/maxwin/BulkDock/OUTPUTS/openbind_a71ev2a_c1_knitwork_impure_1B07QS4.sdf', '/opt/xchem-fragalysis-2/maxwin/BulkDock/OUTPUTS/openbind_a71ev2a_c1_knitwork_impure_1B07X5R.sdf', '/opt/xchem-fragalysis-2/maxwin/openbind-hippo/a71ev2a/openbind_a71ev2a_c1_scaffold_products.sdf', '/opt/xchem-fragalysis-2/maxwin/openbind-hippo/a71ev2a/cycle_01/bulkdock/openbind_a71ev2a_c1_scaffold_products.sdf', '/opt/xchem-fragalysis-2/maxwin/openbind-hippo/a71ev2a/cycle_01/bulkdock/openbind_a71ev2a_c1_scaffolds.sdf']

>  <fragmenstein_runtime>  (820) 
3.004309

$$$$
C38601-P122
     RDKit          3D

 11 11  0  0  0  0  0  0  0  0999 V2000
    8.9518   13.1605   25.0834 O   0  0  0  0  0  0  0  0  0  0  0  0
    9.5211   12.1158   24.7744 C   0  0  0  0  0  0  0  0  0  0  0  0
   10.8555   12.0195   24.0261 C   0  0  0  0  0  0  0  0  0  0  0  0
   10.8416   10.8356   23.0639 C   0  0  1  0  0  0  0  0  0  0  0  0
   12.0232   10.5586   22.1617 C   0  0  0  0  0  0  0  0  0  0  0  0
   12.1614    9.4175   21.7038 O   0  0  0  0  0  0  0  0  0  0  0  0
   12.9011   11.7166   21.7479 C   0  0  0  0  0  0  0  0  0  0  0  0
   14.0794   11.1422   20.5298 Cl  0  0  0  0  0  0  0  0  0  0  0  0
   10.4648    9.5505   23.7800 C   0  0  0  0  0  0  0  0  0  0  0  0
    9.1051    9.7521   24.3748 C   0  0  0  0  0  0  0  0  0  0  0  0
    8.9765   10.9295   25.1851 N   0  0  0  0  0  0  0  0  0  0  0  0
  1  2  2  0
  2  3  1  0
  3  4  1  0
  4  5  1  1
  5  6  2  0
  5  7  1  0
  7  8  1  0
  4  9  1  0
  9 10  1  0
 10 11  1  0
 11  2  1  0
M  END
>  <ref_pdb>  (821) 
A1775a

>  <subsites>  (821) 
1 - Active Site

>  <HIPPO Compound ID>  (821) 
10874

>  <energy_score>  (821) 
-14.219329

>  <fragmenstein_mode>  (821) 
expansion

>  <scratch_subdir>  (821) 
/opt/xchem-fragalysis-2/maxwin/BulkDock/SCRATCH/512207/C38601-P122

>  <smiles>  (821) 
O=C1C[C@@H](C(=O)CCl)CCN1

>  <alias>  (821) 
C38601-P122

>  <ref_mols>  (821) 
A4029a,A1775a

>  <inspiration_score>  (821) 
None

>  <tags>  (821) 
BulkDock Fragalysis export,fragmenstein_placed,openbind_a71ev2a_c1_knitwork_impure,openbind_a71ev2a_c1_scaffolds

>  <fragmenstein_outcome>  (821) 
acceptable

>  <fragmenstein_error>  (821) 


>  <distance_score>  (821) 
0.793107

>  <inchikey>  (821) 
ITCVEUCTWLRDPC-UHFFFAOYSA-N

>  <name>  (821) 
C38601-P122

>  <HIPPO Pose ID>  (821) 
415160

>  <Energy>  (821) 
-6.718168

>  <exports>  (821) 
['/opt/xchem-fragalysis-2/maxwin/BulkDock/OUTPUTS/openbind_a71ev2a_c1_knitwork_impure_165VXJF.sdf', '/opt/xchem-fragalysis-2/maxwin/BulkDock/OUTPUTS/openbind_a71ev2a_c1_knitwork_impure_1B07QS4.sdf', '/opt/xchem-fragalysis-2/maxwin/BulkDock/OUTPUTS/openbind_a71ev2a_c1_knitwork_impure_1B07X5R.sdf', '/opt/xchem-fragalysis-2/maxwin/openbind-hippo/a71ev2a/openbind_a71ev2a_c1_scaffold_products.sdf', '/opt/xchem-fragalysis-2/maxwin/openbind-hippo/a71ev2a/cycle_01/bulkdock/openbind_a71ev2a_c1_scaffold_products.sdf', '/opt/xchem-fragalysis-2/maxwin/openbind-hippo/a71ev2a/cycle_01/bulkdock/openbind_a71ev2a_c1_scaffolds.sdf']

>  <fragmenstein_runtime>  (821) 
1.344507

$$$$
C38616-P273
     RDKit          3D

 13 13  0  0  0  0  0  0  0  0999 V2000
    6.8022   11.3687   26.2016 O   0  0  0  0  0  0  0  0  0  0  0  0
    7.5551   11.4597   25.2411 C   0  0  0  0  0  0  0  0  0  0  0  0
    7.6447   12.6852   24.3892 C   0  0  0  0  0  0  0  0  0  0  0  0
    9.0897   13.0280   24.0595 C   0  0  2  0  0  0  0  0  0  0  0  0
    9.1240   14.2573   23.1466 C   0  0  1  0  0  0  0  0  0  0  0  0
    8.4108   15.2490   23.7629 F   0  0  0  0  0  0  0  0  0  0  0  0
   10.5207   14.7714   22.8297 C   0  0  0  0  0  0  0  0  0  0  0  0
   10.4550   15.7859   21.9439 F   0  0  0  0  0  0  0  0  0  0  0  0
   11.1582   15.2015   23.9416 F   0  0  0  0  0  0  0  0  0  0  0  0
   11.3036   13.8203   22.2765 F   0  0  0  0  0  0  0  0  0  0  0  0
    9.8415   11.8361   23.4590 C   0  0  0  0  0  0  0  0  0  0  0  0
    9.2571   10.4585   23.7480 C   0  0  0  0  0  0  0  0  0  0  0  0
    8.3619   10.4284   24.8713 N   0  0  0  0  0  0  0  0  0  0  0  0
  1  2  2  0
  2  3  1  0
  4  3  1  6
  4  5  1  0
  5  6  1  1
  5  7  1  0
  7  8  1  0
  7  9  1  0
  7 10  1  0
  4 11  1  0
 11 12  1  0
 12 13  1  0
 13  2  1  0
M  END
>  <ref_pdb>  (822) 
A4029a

>  <subsites>  (822) 
1 - Active Site

>  <HIPPO Compound ID>  (822) 
5997

>  <energy_score>  (822) 
-27.499823

>  <fragmenstein_mode>  (822) 
expansion

>  <scratch_subdir>  (822) 
/opt/xchem-fragalysis-2/maxwin/BulkDock/SCRATCH/512207/C38616-P273

>  <smiles>  (822) 
O=C1C[C@H]([C@@H](F)C(F)(F)F)CCN1

>  <alias>  (822) 
C38616-P273

>  <ref_mols>  (822) 
A4029a,A1775a

>  <inspiration_score>  (822) 
None

>  <tags>  (822) 
BulkDock Fragalysis export,fragmenstein_placed,openbind_a71ev2a_c1_knitwork_impure,openbind_a71ev2a_c1_scaffolds

>  <fragmenstein_outcome>  (822) 
acceptable

>  <fragmenstein_error>  (822) 


>  <distance_score>  (822) 
0.958752

>  <inchikey>  (822) 
BIBIWDDCLSQUGA-UHFFFAOYSA-N

>  <name>  (822) 
C38616-P273

>  <HIPPO Pose ID>  (822) 
415178

>  <Energy>  (822) 
15.204199

>  <exports>  (822) 
['/opt/xchem-fragalysis-2/maxwin/BulkDock/OUTPUTS/openbind_a71ev2a_c1_knitwork_impure_165VXJF.sdf', '/opt/xchem-fragalysis-2/maxwin/BulkDock/OUTPUTS/openbind_a71ev2a_c1_knitwork_impure_1B07QS4.sdf', '/opt/xchem-fragalysis-2/maxwin/BulkDock/OUTPUTS/openbind_a71ev2a_c1_knitwork_impure_1B07X5R.sdf', '/opt/xchem-fragalysis-2/maxwin/openbind-hippo/a71ev2a/openbind_a71ev2a_c1_scaffold_products.sdf', '/opt/xchem-fragalysis-2/maxwin/openbind-hippo/a71ev2a/cycle_01/bulkdock/openbind_a71ev2a_c1_scaffold_products.sdf', '/opt/xchem-fragalysis-2/maxwin/openbind-hippo/a71ev2a/cycle_01/bulkdock/openbind_a71ev2a_c1_scaffolds.sdf']

>  <fragmenstein_runtime>  (822) 
1.837714

$$$$
C83115-P174
     RDKit          3D

 16 17  0  0  0  0  0  0  0  0999 V2000
    9.0497   15.2237   21.8589 N   0  0  0  0  0  0  0  0  0  0  0  0
    7.4714   14.7633   22.1074 S   0  0  0  0  0  0  0  0  0  0  0  0
    7.4029   13.3476   21.8639 O   0  0  0  0  0  0  0  0  0  0  0  0
    6.7031   15.6691   21.2991 O   0  0  0  0  0  0  0  0  0  0  0  0
    7.1656   15.0865   23.8287 C   0  0  0  0  0  0  0  0  0  0  0  0
    8.3782   15.0596   24.7501 C   0  0  0  0  0  0  0  0  0  0  0  0
    9.3451   13.8786   24.6671 C   0  0  0  0  0  0  0  0  0  0  0  0
    8.7955   12.5553   24.5474 N   0  0  0  0  0  0  0  0  0  0  0  0
    9.2976   11.5861   23.7119 C   0  0  0  0  0  0  0  0  0  0  0  0
    8.6948   10.4340   23.8894 N   0  0  0  0  0  0  0  0  0  0  0  0
    7.7502   10.6813   24.8386 C   0  0  0  0  0  0  0  0  0  0  0  0
    7.7919   11.9848   25.2744 C   0  0  0  0  0  0  0  0  0  0  0  0
    6.9143   12.5604   26.3246 C   0  0  0  0  0  0  0  0  0  0  0  0
    5.6824   11.6656   26.5292 C   0  0  0  0  0  0  0  0  0  0  0  0
    6.0390   10.1745   26.5777 C   0  0  0  0  0  0  0  0  0  0  0  0
    6.7886    9.6808   25.3306 C   0  0  0  0  0  0  0  0  0  0  0  0
  1  2  1  0
  2  3  2  0
  2  4  2  0
  2  5  1  0
  5  6  1  0
  6  7  1  0
  7  8  1  0
  8  9  1  0
  9 10  2  0
 10 11  1  0
 11 12  2  0
 12 13  1  0
 13 14  1  0
 14 15  1  0
 15 16  1  0
 12  8  1  0
 16 11  1  0
M  END
>  <ref_pdb>  (823) 
A3371a

>  <subsites>  (823) 
1 - Active Site

>  <HIPPO Compound ID>  (823) 
899

>  <energy_score>  (823) 
-41.007043

>  <fragmenstein_mode>  (823) 
expansion

>  <scratch_subdir>  (823) 
/opt/xchem-fragalysis-2/maxwin/BulkDock/SCRATCH/512207/C83115-P174

>  <smiles>  (823) 
NS(=O)(=O)CCCn1cnc2c1CCCC2

>  <alias>  (823) 
C83115-P174

>  <ref_mols>  (823) 
A0719a,A3371a

>  <inspiration_score>  (823) 
None

>  <tags>  (823) 
BulkDock Fragalysis export,fragmenstein_placed,openbind_a71ev2a_c1_knitwork_impure,openbind_a71ev2a_c1_scaffolds

>  <fragmenstein_outcome>  (823) 
acceptable

>  <fragmenstein_error>  (823) 


>  <distance_score>  (823) 
0.756828

>  <inchikey>  (823) 
FZVASHCIYDDMFL-UHFFFAOYSA-N

>  <name>  (823) 
C83115-P174

>  <HIPPO Pose ID>  (823) 
415537

>  <Energy>  (823) 
-76.69017

>  <exports>  (823) 
['/opt/xchem-fragalysis-2/maxwin/BulkDock/OUTPUTS/openbind_a71ev2a_c1_knitwork_impure_165VXJF.sdf', '/opt/xchem-fragalysis-2/maxwin/BulkDock/OUTPUTS/openbind_a71ev2a_c1_knitwork_impure_1B07QS4.sdf', '/opt/xchem-fragalysis-2/maxwin/BulkDock/OUTPUTS/openbind_a71ev2a_c1_knitwork_impure_1B07X5R.sdf', '/opt/xchem-fragalysis-2/maxwin/openbind-hippo/a71ev2a/openbind_a71ev2a_c1_scaffold_products.sdf', '/opt/xchem-fragalysis-2/maxwin/openbind-hippo/a71ev2a/cycle_01/bulkdock/openbind_a71ev2a_c1_scaffold_products.sdf', '/opt/xchem-fragalysis-2/maxwin/openbind-hippo/a71ev2a/cycle_01/bulkdock/openbind_a71ev2a_c1_scaffolds.sdf']

>  <fragmenstein_runtime>  (823) 
34.118911

$$$$
C33925-P219
     RDKit          3D

 22 24  0  0  0  0  0  0  0  0999 V2000
    5.6907   11.9896   27.2285 C   0  0  0  0  0  0  0  0  0  0  0  0
    6.3135   11.0552   26.3530 O   0  0  0  0  0  0  0  0  0  0  0  0
    7.1946   11.6093   25.4803 C   0  0  0  0  0  0  0  0  0  0  0  0
    8.2055   10.7967   24.9920 C   0  0  0  0  0  0  0  0  0  0  0  0
    9.2339   11.3613   24.2455 C   0  0  0  0  0  0  0  0  0  0  0  0
    9.1773   12.7171   23.9810 C   0  0  0  0  0  0  0  0  0  0  0  0
   10.2400   13.4106   23.4758 N   0  0  0  0  0  0  0  0  0  0  0  0
   11.7283   13.0578   23.4338 C   0  0  0  0  0  0  0  0  0  0  0  0
   12.3024   12.1562   23.8896 O   0  0  0  0  0  0  0  0  0  0  0  0
   12.4581   14.1257   22.7540 C   0  0  0  0  0  0  0  0  0  0  0  0
   13.3887   14.8586   23.4616 C   0  0  0  0  0  0  0  0  0  0  0  0
   13.9940   15.9506   22.8560 C   0  0  0  0  0  0  0  0  0  0  0  0
   13.7421   16.2800   21.5204 C   0  0  0  0  0  0  0  0  0  0  0  0
   12.9129   15.4159   20.7824 C   0  0  0  0  0  0  0  0  0  0  0  0
   12.2162   14.3834   21.4187 C   0  0  0  0  0  0  0  0  0  0  0  0
   12.7601   15.5107   19.3002 C   0  0  0  0  0  0  0  0  0  0  0  0
   12.0960   16.8084   18.9281 C   0  0  0  0  0  0  0  0  0  0  0  0
   12.8320   18.0939   19.3147 C   0  0  0  0  0  0  0  0  0  0  0  0
   14.2908   17.8795   19.6685 C   0  0  0  0  0  0  0  0  0  0  0  0
   14.4536   17.3591   21.0156 N   0  0  0  0  0  0  0  0  0  0  0  0
    8.1234   13.4835   24.2815 N   0  0  0  0  0  0  0  0  0  0  0  0
    7.1613   12.9171   25.0304 C   0  0  0  0  0  0  0  0  0  0  0  0
  1  2  1  0
  2  3  1  0
  3  4  2  0
  4  5  1  0
  5  6  2  0
  6  7  1  0
  7  8  1  0
  8  9  2  0
  8 10  1  0
 10 11  2  0
 11 12  1  0
 12 13  2  0
 13 14  1  0
 14 15  2  0
 14 16  1  0
 16 17  1  0
 17 18  1  0
 18 19  1  0
 19 20  1  0
  6 21  1  0
 21 22  2  0
 22  3  1  0
 15 10  1  0
 20 13  1  0
M  END
>  <ref_pdb>  (824) 
A3564a

>  <subsites>  (824) 
1 - Active Site

>  <HIPPO Compound ID>  (824) 
6632

>  <energy_score>  (824) 
-39.756282

>  <fragmenstein_mode>  (824) 
expansion

>  <scratch_subdir>  (824) 
/opt/xchem-fragalysis-2/maxwin/BulkDock/SCRATCH/511194/C33925-P219

>  <smiles>  (824) 
COc1ccc(NC(=O)c2ccc3c(c2)CCCCN3)nc1

>  <alias>  (824) 
C33925-P219

>  <ref_mols>  (824) 
A3564a,A1778a

>  <inspiration_score>  (824) 
None

>  <tags>  (824) 
BulkDock Fragalysis export,fragmenstein_placed,openbind_a71ev2a_c1_knitwork_impure,openbind_a71ev2a_c1_scaffolds

>  <fragmenstein_outcome>  (824) 
acceptable

>  <fragmenstein_error>  (824) 


>  <distance_score>  (824) 
0.853135

>  <inchikey>  (824) 
XXCNYTHYAPNDQY-UHFFFAOYSA-N

>  <name>  (824) 
C33925-P219

>  <HIPPO Pose ID>  (824) 
416063

>  <Energy>  (824) 
42.482153

>  <exports>  (824) 
['/opt/xchem-fragalysis-2/maxwin/BulkDock/OUTPUTS/openbind_a71ev2a_c1_knitwork_impure_165VXJF.sdf', '/opt/xchem-fragalysis-2/maxwin/BulkDock/OUTPUTS/openbind_a71ev2a_c1_knitwork_impure_1B07QS4.sdf', '/opt/xchem-fragalysis-2/maxwin/BulkDock/OUTPUTS/openbind_a71ev2a_c1_knitwork_impure_1B07X5R.sdf', '/opt/xchem-fragalysis-2/maxwin/openbind-hippo/a71ev2a/openbind_a71ev2a_c1_scaffold_products.sdf', '/opt/xchem-fragalysis-2/maxwin/openbind-hippo/a71ev2a/cycle_01/bulkdock/openbind_a71ev2a_c1_scaffold_products.sdf', '/opt/xchem-fragalysis-2/maxwin/openbind-hippo/a71ev2a/cycle_01/bulkdock/openbind_a71ev2a_c1_scaffolds.sdf']

>  <fragmenstein_runtime>  (824) 
8.682203

$$$$
C1800-P190
     RDKit          3D

 16 18  0  0  0  0  0  0  0  0999 V2000
    8.3713   14.2918   24.5733 C   0  0  0  0  0  0  0  0  0  0  0  0
    7.7206   13.2594   25.1364 N   0  0  0  0  0  0  0  0  0  0  0  0
    7.9886   12.0229   24.6604 C   0  0  0  0  0  0  0  0  0  0  0  0
    8.9617   11.7761   23.7040 C   0  0  0  0  0  0  0  0  0  0  0  0
    9.6247   12.8827   23.1469 C   0  0  0  0  0  0  0  0  0  0  0  0
    9.2929   14.1777   23.5402 C   0  0  0  0  0  0  0  0  0  0  0  0
    9.8142   15.4550   22.9179 C   0  0  0  0  0  0  0  0  0  0  0  0
   11.0177   16.0134   23.6848 C   0  0  0  0  0  0  0  0  0  0  0  0
   12.3444   15.5570   23.1149 C   0  0  0  0  0  0  0  0  0  0  0  0
   12.4265   15.8761   21.6971 N   0  0  0  0  0  0  0  0  0  0  0  0
   11.4404   15.1021   20.9494 C   0  0  0  0  0  0  0  0  0  0  0  0
   10.0202   15.4365   21.3914 C   0  0  0  0  0  0  0  0  0  0  0  0
    9.3674   10.3812   23.3387 C   0  0  0  0  0  0  0  0  0  0  0  0
    8.3863    9.2748   23.6733 C   0  0  0  0  0  0  0  0  0  0  0  0
    7.3785    9.5363   24.7719 C   0  0  0  0  0  0  0  0  0  0  0  0
    7.1399   10.9515   25.2435 C   0  0  0  0  0  0  0  0  0  0  0  0
  1  2  2  0
  2  3  1  0
  3  4  2  0
  4  5  1  0
  5  6  2  0
  6  7  1  0
  7  8  1  0
  8  9  1  0
  9 10  1  0
 10 11  1  0
 11 12  1  0
  4 13  1  0
 13 14  1  0
 14 15  1  0
 15 16  1  0
  6  1  1  0
 12  7  1  0
 16  3  1  0
M  END
>  <ref_pdb>  (825) 
A3509a

>  <subsites>  (825) 
1 - Active Site

>  <HIPPO Compound ID>  (825) 
6093

>  <energy_score>  (825) 
-13.733976

>  <fragmenstein_mode>  (825) 
expansion

>  <scratch_subdir>  (825) 
/opt/xchem-fragalysis-2/maxwin/BulkDock/SCRATCH/511194/C1800-P190

>  <smiles>  (825) 
c1nc2c(cc1C1CCNCC1)CCCC2

>  <alias>  (825) 
C1800-P190

>  <ref_mols>  (825) 
A0556a,A3509a

>  <inspiration_score>  (825) 
None

>  <tags>  (825) 
BulkDock Fragalysis export,fragmenstein_placed,openbind_a71ev2a_c1_knitwork_impure,openbind_a71ev2a_c1_scaffolds

>  <fragmenstein_outcome>  (825) 
acceptable

>  <fragmenstein_error>  (825) 


>  <distance_score>  (825) 
0.796528

>  <inchikey>  (825) 
LEXQPYMCTMZRQM-UHFFFAOYSA-N

>  <name>  (825) 
C1800-P190

>  <HIPPO Pose ID>  (825) 
417574

>  <Energy>  (825) 
37.644643

>  <exports>  (825) 
['/opt/xchem-fragalysis-2/maxwin/BulkDock/OUTPUTS/openbind_a71ev2a_c1_knitwork_impure_165VXJF.sdf', '/opt/xchem-fragalysis-2/maxwin/BulkDock/OUTPUTS/openbind_a71ev2a_c1_knitwork_impure_1B07QS4.sdf', '/opt/xchem-fragalysis-2/maxwin/BulkDock/OUTPUTS/openbind_a71ev2a_c1_knitwork_impure_1B07X5R.sdf', '/opt/xchem-fragalysis-2/maxwin/openbind-hippo/a71ev2a/openbind_a71ev2a_c1_scaffold_products.sdf', '/opt/xchem-fragalysis-2/maxwin/openbind-hippo/a71ev2a/cycle_01/bulkdock/openbind_a71ev2a_c1_scaffold_products.sdf', '/opt/xchem-fragalysis-2/maxwin/openbind-hippo/a71ev2a/cycle_01/bulkdock/openbind_a71ev2a_c1_scaffolds.sdf']

>  <fragmenstein_runtime>  (825) 
48.332232

$$$$
C1814-P190
     RDKit          3D

 16 18  0  0  0  0  0  0  0  0999 V2000
    8.3739   14.3408   24.6920 C   0  0  0  0  0  0  0  0  0  0  0  0
    7.7231   13.2871   25.2147 N   0  0  0  0  0  0  0  0  0  0  0  0
    7.9923   12.0693   24.6928 C   0  0  0  0  0  0  0  0  0  0  0  0
    8.9592   11.8601   23.7200 C   0  0  0  0  0  0  0  0  0  0  0  0
    9.6112   12.9904   23.1921 C   0  0  0  0  0  0  0  0  0  0  0  0
    9.2864   14.2691   23.6483 C   0  0  0  0  0  0  0  0  0  0  0  0
    9.8101   15.5704   23.0756 C   0  0  1  0  0  0  0  0  0  0  0  0
   11.1672   15.9721   23.6664 C   0  0  0  0  0  0  0  0  0  0  0  0
   12.3425   15.5241   22.8164 C   0  0  0  0  0  0  0  0  0  0  0  0
   12.1403   15.8921   21.3521 C   0  0  0  0  0  0  0  0  0  0  0  0
   10.9519   15.2182   20.8459 N   0  0  0  0  0  0  0  0  0  0  0  0
    9.7503   15.6809   21.5352 C   0  0  0  0  0  0  0  0  0  0  0  0
    9.3733   10.4770   23.3206 C   0  0  0  0  0  0  0  0  0  0  0  0
    8.4183    9.3444   23.6507 C   0  0  0  0  0  0  0  0  0  0  0  0
    7.4144    9.5705   24.7598 C   0  0  0  0  0  0  0  0  0  0  0  0
    7.1408   10.9778   25.2355 C   0  0  0  0  0  0  0  0  0  0  0  0
  1  2  2  0
  2  3  1  0
  3  4  2  0
  4  5  1  0
  5  6  2  0
  7  6  1  6
  7  8  1  0
  8  9  1  0
  9 10  1  0
 10 11  1  0
 11 12  1  0
  4 13  1  0
 13 14  1  0
 14 15  1  0
 15 16  1  0
  6  1  1  0
 12  7  1  0
 16  3  1  0
M  END
>  <ref_pdb>  (826) 
A3509a

>  <subsites>  (826) 
1 - Active Site

>  <HIPPO Compound ID>  (826) 
15402

>  <energy_score>  (826) 
-15.753681

>  <fragmenstein_mode>  (826) 
expansion

>  <scratch_subdir>  (826) 
/opt/xchem-fragalysis-2/maxwin/BulkDock/SCRATCH/511194/C1814-P190

>  <smiles>  (826) 
c1nc2c(cc1[C@H]1CCCNC1)CCCC2

>  <alias>  (826) 
C1814-P190

>  <ref_mols>  (826) 
A0556a,A3509a

>  <inspiration_score>  (826) 
None

>  <tags>  (826) 
BulkDock Fragalysis export,fragmenstein_placed,openbind_a71ev2a_c1_knitwork_impure,openbind_a71ev2a_c1_scaffolds

>  <fragmenstein_outcome>  (826) 
acceptable

>  <fragmenstein_error>  (826) 


>  <distance_score>  (826) 
0.795535

>  <inchikey>  (826) 
HGUKBOHHMVWXGD-UHFFFAOYSA-N

>  <name>  (826) 
C1814-P190

>  <HIPPO Pose ID>  (826) 
417578

>  <Energy>  (826) 
50.322023

>  <exports>  (826) 
['/opt/xchem-fragalysis-2/maxwin/BulkDock/OUTPUTS/openbind_a71ev2a_c1_knitwork_impure_165VXJF.sdf', '/opt/xchem-fragalysis-2/maxwin/BulkDock/OUTPUTS/openbind_a71ev2a_c1_knitwork_impure_1B07QS4.sdf', '/opt/xchem-fragalysis-2/maxwin/BulkDock/OUTPUTS/openbind_a71ev2a_c1_knitwork_impure_1B07X5R.sdf', '/opt/xchem-fragalysis-2/maxwin/openbind-hippo/a71ev2a/openbind_a71ev2a_c1_scaffold_products.sdf', '/opt/xchem-fragalysis-2/maxwin/openbind-hippo/a71ev2a/cycle_01/bulkdock/openbind_a71ev2a_c1_scaffold_products.sdf', '/opt/xchem-fragalysis-2/maxwin/openbind-hippo/a71ev2a/cycle_01/bulkdock/openbind_a71ev2a_c1_scaffolds.sdf']

>  <fragmenstein_runtime>  (826) 
14.200706

$$$$
C1820-P190
     RDKit          3D

 11 12  0  0  0  0  0  0  0  0999 V2000
    8.3625   14.4216   25.1937 C   0  0  0  0  0  0  0  0  0  0  0  0
    7.9510   15.6507   25.4891 N   0  0  0  0  0  0  0  0  0  0  0  0
    6.4003   15.8284   24.9346 S   0  0  0  0  0  0  0  0  0  0  0  0
    6.2574   14.2429   24.3121 C   0  0  0  0  0  0  0  0  0  0  0  0
    7.4394   13.5503   24.5254 C   0  0  0  0  0  0  0  0  0  0  0  0
    7.6720   12.1106   24.1279 C   0  0  1  0  0  0  0  0  0  0  0  0
    9.1102   11.8058   23.7114 C   0  0  0  0  0  0  0  0  0  0  0  0
    9.3503   10.3221   23.4277 C   0  0  0  0  0  0  0  0  0  0  0  0
    8.2563    9.3817   23.9043 C   0  0  0  0  0  0  0  0  0  0  0  0
    7.6118    9.7696   25.1463 N   0  0  0  0  0  0  0  0  0  0  0  0
    7.1711   11.1539   25.2224 C   0  0  0  0  0  0  0  0  0  0  0  0
  1  2  2  0
  2  3  1  0
  3  4  1  0
  4  5  2  0
  6  5  1  1
  6  7  1  0
  7  8  1  0
  8  9  1  0
  9 10  1  0
 10 11  1  0
  5  1  1  0
 11  6  1  0
M  END
>  <ref_pdb>  (827) 
A3509a

>  <subsites>  (827) 
1 - Active Site

>  <HIPPO Compound ID>  (827) 
1603

>  <energy_score>  (827) 
-23.331797

>  <fragmenstein_mode>  (827) 
expansion

>  <scratch_subdir>  (827) 
/opt/xchem-fragalysis-2/maxwin/BulkDock/SCRATCH/511194/C1820-P190

>  <smiles>  (827) 
c1nscc1[C@H]1CCCNC1

>  <alias>  (827) 
C1820-P190

>  <ref_mols>  (827) 
A0556a,A3509a

>  <inspiration_score>  (827) 
None

>  <tags>  (827) 
BulkDock Fragalysis export,fragmenstein_placed,openbind_a71ev2a_c1_knitwork_impure,openbind_a71ev2a_c1_scaffolds

>  <fragmenstein_outcome>  (827) 
acceptable

>  <fragmenstein_error>  (827) 


>  <distance_score>  (827) 
0.970126

>  <inchikey>  (827) 
YUGVDPXJICVPLB-UHFFFAOYSA-N

>  <name>  (827) 
C1820-P190

>  <HIPPO Pose ID>  (827) 
417580

>  <Energy>  (827) 
22.630771

>  <exports>  (827) 
['/opt/xchem-fragalysis-2/maxwin/BulkDock/OUTPUTS/openbind_a71ev2a_c1_knitwork_impure_165VXJF.sdf', '/opt/xchem-fragalysis-2/maxwin/BulkDock/OUTPUTS/openbind_a71ev2a_c1_knitwork_impure_1B07QS4.sdf', '/opt/xchem-fragalysis-2/maxwin/BulkDock/OUTPUTS/openbind_a71ev2a_c1_knitwork_impure_1B07X5R.sdf', '/opt/xchem-fragalysis-2/maxwin/openbind-hippo/a71ev2a/openbind_a71ev2a_c1_scaffold_products.sdf', '/opt/xchem-fragalysis-2/maxwin/openbind-hippo/a71ev2a/cycle_01/bulkdock/openbind_a71ev2a_c1_scaffold_products.sdf', '/opt/xchem-fragalysis-2/maxwin/openbind-hippo/a71ev2a/cycle_01/bulkdock/openbind_a71ev2a_c1_scaffolds.sdf']

>  <fragmenstein_runtime>  (827) 
2.390846

$$$$
C3508-P535
     RDKit          3D

 24 26  0  0  0  0  0  0  0  0999 V2000
    4.2177   11.4578    0.4957 C   0  0  0  0  0  0  0  0  0  0  0  0
    3.9472   12.9654    0.6363 C   0  0  0  0  0  0  0  0  0  0  0  0
    3.2152   13.2097    1.9850 C   0  0  0  0  0  0  0  0  0  0  0  0
    2.9863   13.3997   -0.4910 C   0  0  0  0  0  0  0  0  0  0  0  0
    5.2691   13.7932    0.5539 C   0  0  2  0  0  0  0  0  0  0  0  0
    6.1251   13.5446   -0.7073 C   0  0  0  0  0  0  0  0  0  0  0  0
    7.1453   14.5512   -0.8941 N   0  0  0  0  0  0  0  0  0  0  0  0
    7.6709   15.2199   -2.1831 C   0  0  0  0  0  0  0  0  0  0  0  0
    7.4166   15.0077   -3.3050 O   0  0  0  0  0  0  0  0  0  0  0  0
    8.7165   16.3193   -1.8173 C   0  0  0  0  0  0  0  0  0  0  0  0
    9.9342   15.9636   -0.9259 C   0  0  0  0  0  0  0  0  0  0  0  0
    9.8354   17.3799   -0.3272 C   0  0  0  0  0  0  0  0  0  0  0  0
    8.3614   17.4103   -0.7747 C   0  0  0  0  0  0  0  0  0  0  0  0
    6.0361   13.5415    1.7562 N   0  0  0  0  0  0  0  0  0  0  0  0
    7.2585   14.2571    2.3202 C   0  0  0  0  0  0  0  0  0  0  0  0
    7.8991   15.1178    1.8760 O   0  0  0  0  0  0  0  0  0  0  0  0
    7.4772   13.7393    3.6454 C   0  0  0  0  0  0  0  0  0  0  0  0
    7.5281   14.4956    4.8242 C   0  0  0  0  0  0  0  0  0  0  0  0
    7.4899   13.7264    5.9106 N   0  0  0  0  0  0  0  0  0  0  0  0
    7.5252   12.4228    5.4384 O   0  0  0  0  0  0  0  0  0  0  0  0
    7.5188   12.4307    4.0782 C   0  0  0  0  0  0  0  0  0  0  0  0
    7.4440   11.1426    3.2072 C   0  0  0  0  0  0  0  0  0  0  0  0
    8.6126   10.1993    3.1447 C   0  0  0  0  0  0  0  0  0  0  0  0
    8.2780   11.0430    1.9534 C   0  0  0  0  0  0  0  0  0  0  0  0
  1  2  1  0
  2  3  1  0
  2  4  1  0
  2  5  1  0
  5  6  1  6
  6  7  1  0
  7  8  1  0
  8  9  2  0
  8 10  1  0
 10 11  1  0
 11 12  1  0
 12 13  1  0
  5 14  1  0
 14 15  1  0
 15 16  2  0
 15 17  1  0
 17 18  1  0
 18 19  2  0
 19 20  1  0
 20 21  1  0
 21 22  1  0
 22 23  1  0
 23 24  1  0
 13 10  1  0
 21 17  2  0
 24 22  1  0
M  END
>  <ref_pdb>  (828) 
A4943a

>  <subsites>  (828) 
1 - Active Site,3 - A0541/A/147/1

>  <HIPPO Compound ID>  (828) 
3542

>  <energy_score>  (828) 
-29.150714

>  <fragmenstein_mode>  (828) 
expansion

>  <scratch_subdir>  (828) 
/opt/xchem-fragalysis-2/maxwin/BulkDock/SCRATCH/511194/C3508-P535

>  <smiles>  (828) 
CC(C)(C)[C@H](CNC(=O)C1CCC1)NC(=O)c1cnoc1C1CC1

>  <alias>  (828) 
C3508-P535

>  <ref_mols>  (828) 
A0541a,A4943a

>  <inspiration_score>  (828) 
None

>  <tags>  (828) 
BulkDock Fragalysis export,fragmenstein_placed,openbind_a71ev2a_c1_knitwork_impure,openbind_a71ev2a_c1_scaffolds

>  <fragmenstein_outcome>  (828) 
acceptable

>  <fragmenstein_error>  (828) 


>  <distance_score>  (828) 
0.952273

>  <inchikey>  (828) 
OTENLVGMSKIYLZ-UHFFFAOYSA-N

>  <name>  (828) 
C3508-P535

>  <HIPPO Pose ID>  (828) 
417981

>  <Energy>  (828) 
32.419621

>  <exports>  (828) 
['/opt/xchem-fragalysis-2/maxwin/BulkDock/OUTPUTS/openbind_a71ev2a_c1_knitwork_impure_165VXJF.sdf', '/opt/xchem-fragalysis-2/maxwin/BulkDock/OUTPUTS/openbind_a71ev2a_c1_knitwork_impure_1B07QS4.sdf', '/opt/xchem-fragalysis-2/maxwin/BulkDock/OUTPUTS/openbind_a71ev2a_c1_knitwork_impure_1B07X5R.sdf', '/opt/xchem-fragalysis-2/maxwin/openbind-hippo/a71ev2a/openbind_a71ev2a_c1_scaffold_products.sdf', '/opt/xchem-fragalysis-2/maxwin/openbind-hippo/a71ev2a/cycle_01/bulkdock/openbind_a71ev2a_c1_scaffold_products.sdf', '/opt/xchem-fragalysis-2/maxwin/openbind-hippo/a71ev2a/cycle_01/bulkdock/openbind_a71ev2a_c1_scaffolds.sdf']

>  <fragmenstein_runtime>  (828) 
112.021949

$$$$
C1360-P303
     RDKit          3D

 21 22  0  0  0  0  0  0  0  0999 V2000
    9.5760   13.4521   24.9586 C   0  0  0  0  0  0  0  0  0  0  0  0
    8.3399   12.9050   24.2479 C   0  0  2  0  0  0  0  0  0  0  0  0
    7.9343   13.5218   22.8894 C   0  0  0  0  0  0  0  0  0  0  0  0
    7.1860   12.9518   22.2115 O   0  0  0  0  0  0  0  0  0  0  0  0
    8.7151   14.7990   22.6378 N   0  0  0  0  0  0  0  0  0  0  0  0
    8.8181   15.5788   21.5046 O   0  0  0  0  0  0  0  0  0  0  0  0
    9.7546   14.8947   20.6912 C   0  0  0  0  0  0  0  0  0  0  0  0
    9.9732   15.5619   19.3547 C   0  0  0  0  0  0  0  0  0  0  0  0
   11.2431   14.8903   18.8768 C   0  0  0  0  0  0  0  0  0  0  0  0
   12.0492   14.5891   20.1435 C   0  0  0  0  0  0  0  0  0  0  0  0
   11.1454   14.8812   21.3112 C   0  0  0  0  0  0  0  0  0  0  0  0
    7.2109   12.6268   25.2365 C   0  0  0  0  0  0  0  0  0  0  0  0
    7.2267   11.3752   25.8899 C   0  0  0  0  0  0  0  0  0  0  0  0
    6.2723   11.0430   26.8512 C   0  0  0  0  0  0  0  0  0  0  0  0
    5.2964   11.9575   27.2082 C   0  0  0  0  0  0  0  0  0  0  0  0
    5.2424   13.1851   26.5592 C   0  0  0  0  0  0  0  0  0  0  0  0
    6.1749   13.5335   25.5586 C   0  0  0  0  0  0  0  0  0  0  0  0
    5.9861   14.8691   24.8728 C   0  0  0  0  0  0  0  0  0  0  0  0
    5.0611   15.6588   25.4897 F   0  0  0  0  0  0  0  0  0  0  0  0
    7.1494   15.5813   24.9118 F   0  0  0  0  0  0  0  0  0  0  0  0
    5.6118   14.7886   23.5760 F   0  0  0  0  0  0  0  0  0  0  0  0
  2  1  1  1
  2  3  1  0
  3  4  2  0
  3  5  1  0
  5  6  1  0
  6  7  1  0
  7  8  1  0
  8  9  1  0
  9 10  1  0
 10 11  1  0
  2 12  1  0
 12 13  2  0
 13 14  1  0
 14 15  2  0
 15 16  1  0
 16 17  2  0
 17 18  1  0
 18 19  1  0
 18 20  1  0
 18 21  1  0
 11  7  1  0
 17 12  1  0
M  END
>  <ref_pdb>  (829) 
A4320a

>  <subsites>  (829) 
1 - Active Site

>  <HIPPO Compound ID>  (829) 
1360

>  <energy_score>  (829) 
-1.78173

>  <fragmenstein_mode>  (829) 
expansion

>  <scratch_subdir>  (829) 
/opt/xchem-fragalysis-2/maxwin/BulkDock/SCRATCH/511194/C1360-P303

>  <smiles>  (829) 
C[C@H](C(=O)NOC1CCCC1)c1ccccc1C(F)(F)F

>  <alias>  (829) 
C1360-P303

>  <ref_mols>  (829) 
A1080a,A4320a

>  <inspiration_score>  (829) 
None

>  <tags>  (829) 
BulkDock Fragalysis export,fragmenstein_placed,openbind_a71ev2a_c1_knitwork_impure,openbind_a71ev2a_c1_scaffolds

>  <fragmenstein_outcome>  (829) 
acceptable

>  <fragmenstein_error>  (829) 


>  <distance_score>  (829) 
0.880283

>  <inchikey>  (829) 
QNCXQWQUBKXTSX-UHFFFAOYSA-N

>  <name>  (829) 
C1360-P303

>  <HIPPO Pose ID>  (829) 
418119

>  <Energy>  (829) 
130.446395

>  <exports>  (829) 
['/opt/xchem-fragalysis-2/maxwin/BulkDock/OUTPUTS/openbind_a71ev2a_c1_knitwork_impure_165VXJF.sdf', '/opt/xchem-fragalysis-2/maxwin/BulkDock/OUTPUTS/openbind_a71ev2a_c1_knitwork_impure_1B07QS4.sdf', '/opt/xchem-fragalysis-2/maxwin/BulkDock/OUTPUTS/openbind_a71ev2a_c1_knitwork_impure_1B07X5R.sdf', '/opt/xchem-fragalysis-2/maxwin/openbind-hippo/a71ev2a/openbind_a71ev2a_c1_scaffold_products.sdf', '/opt/xchem-fragalysis-2/maxwin/openbind-hippo/a71ev2a/cycle_01/bulkdock/openbind_a71ev2a_c1_scaffold_products.sdf', '/opt/xchem-fragalysis-2/maxwin/openbind-hippo/a71ev2a/cycle_01/bulkdock/openbind_a71ev2a_c1_scaffolds.sdf']

>  <fragmenstein_runtime>  (829) 
11.5082

$$$$
C2086-P296
     RDKit          3D

 15 17  0  0  0  0  0  0  0  0999 V2000
   11.1585   15.1761   21.1984 C   0  0  0  0  0  0  0  0  0  0  0  0
   11.3996   14.9517   22.6811 C   0  0  0  0  0  0  0  0  0  0  0  0
   10.3914   15.7482   23.4963 C   0  0  0  0  0  0  0  0  0  0  0  0
    8.9392   15.5176   23.0550 C   0  0  2  0  0  0  0  0  0  0  0  0
    8.3875   14.2551   23.6650 C   0  0  0  0  0  0  0  0  0  0  0  0
    8.8113   13.0106   23.5178 N   0  0  0  0  0  0  0  0  0  0  0  0
    8.1205   12.2765   24.4358 C   0  0  0  0  0  0  0  0  0  0  0  0
    7.2959   13.0785   25.1815 C   0  0  0  0  0  0  0  0  0  0  0  0
    7.3927   14.3152   24.6205 N   0  0  0  0  0  0  0  0  0  0  0  0
    6.4583   12.6701   26.3234 C   0  0  0  0  0  0  0  0  0  0  0  0
    6.1986   11.1639   26.2320 C   0  0  0  0  0  0  0  0  0  0  0  0
    7.4172   10.3262   25.8098 C   0  0  0  0  0  0  0  0  0  0  0  0
    8.2349   10.8165   24.6044 C   0  0  0  0  0  0  0  0  0  0  0  0
    8.7405   15.6398   21.6083 N   0  0  0  0  0  0  0  0  0  0  0  0
    9.7134   14.8576   20.8377 C   0  0  0  0  0  0  0  0  0  0  0  0
  1  2  1  0
  2  3  1  0
  3  4  1  0
  4  5  1  6
  5  6  2  0
  6  7  1  0
  7  8  2  0
  8  9  1  0
  8 10  1  0
 10 11  1  0
 11 12  1  0
 12 13  1  0
  4 14  1  0
 14 15  1  0
 15  1  1  0
  9  5  1  0
 13  7  1  0
M  END
>  <ref_pdb>  (830) 
A4311a

>  <subsites>  (830) 
1 - Active Site

>  <HIPPO Compound ID>  (830) 
947

>  <energy_score>  (830) 
-27.523333

>  <fragmenstein_mode>  (830) 
expansion

>  <scratch_subdir>  (830) 
/opt/xchem-fragalysis-2/maxwin/BulkDock/SCRATCH/511194/C2086-P296

>  <smiles>  (830) 
C1CC[C@H](c2nc3c([nH]2)CCCC3)NC1

>  <alias>  (830) 
C2086-P296

>  <ref_mols>  (830) 
A4311a,A3371a

>  <inspiration_score>  (830) 
None

>  <tags>  (830) 
BulkDock Fragalysis export,fragmenstein_placed,openbind_a71ev2a_c1_knitwork_impure,openbind_a71ev2a_c1_scaffolds

>  <fragmenstein_outcome>  (830) 
acceptable

>  <fragmenstein_error>  (830) 


>  <distance_score>  (830) 
0.974517

>  <inchikey>  (830) 
ZUUHCJUCTFFCMF-UHFFFAOYSA-N

>  <name>  (830) 
C2086-P296

>  <HIPPO Pose ID>  (830) 
419182

>  <Energy>  (830) 
15.927416

>  <exports>  (830) 
['/opt/xchem-fragalysis-2/maxwin/BulkDock/OUTPUTS/openbind_a71ev2a_c1_knitwork_impure_165VXJF.sdf', '/opt/xchem-fragalysis-2/maxwin/BulkDock/OUTPUTS/openbind_a71ev2a_c1_knitwork_impure_1B07QS4.sdf', '/opt/xchem-fragalysis-2/maxwin/BulkDock/OUTPUTS/openbind_a71ev2a_c1_knitwork_impure_1B07X5R.sdf', '/opt/xchem-fragalysis-2/maxwin/openbind-hippo/a71ev2a/openbind_a71ev2a_c1_scaffold_products.sdf', '/opt/xchem-fragalysis-2/maxwin/openbind-hippo/a71ev2a/cycle_01/bulkdock/openbind_a71ev2a_c1_scaffold_products.sdf', '/opt/xchem-fragalysis-2/maxwin/openbind-hippo/a71ev2a/cycle_01/bulkdock/openbind_a71ev2a_c1_scaffolds.sdf']

>  <fragmenstein_runtime>  (830) 
14.697657

$$$$
C3758-P497
     RDKit          3D

 11 12  0  0  0  0  0  0  0  0999 V2000
    8.9015    9.7313   24.3813 C   0  0  0  0  0  0  0  0  0  0  0  0
    9.3877   10.9520   23.8776 C   0  0  0  0  0  0  0  0  0  0  0  0
    8.6856   11.9274   24.5535 C   0  0  0  0  0  0  0  0  0  0  0  0
    8.7013   13.4198   24.5154 C   0  0  2  0  0  0  0  0  0  0  0  0
   10.0470   13.9775   24.0164 C   0  0  0  0  0  0  0  0  0  0  0  0
   10.0808   15.5046   24.0816 C   0  0  0  0  0  0  0  0  0  0  0  0
    9.6529   16.0034   25.4578 C   0  0  0  0  0  0  0  0  0  0  0  0
    8.3264   15.3789   25.8782 C   0  0  0  0  0  0  0  0  0  0  0  0
    8.4176   13.9184   25.8726 N   0  0  0  0  0  0  0  0  0  0  0  0
    7.7932   11.2435   25.3379 N   0  0  0  0  0  0  0  0  0  0  0  0
    7.9539    9.9093   25.3072 N   0  0  0  0  0  0  0  0  0  0  0  0
  1  2  1  0
  2  3  2  0
  4  3  1  1
  4  5  1  0
  5  6  1  0
  6  7  1  0
  7  8  1  0
  8  9  1  0
  3 10  1  0
 10 11  1  0
 11  1  2  0
  9  4  1  0
M  END
>  <ref_pdb>  (831) 
A4877b

>  <subsites>  (831) 
1 - Active Site

>  <HIPPO Compound ID>  (831) 
83456

>  <energy_score>  (831) 
-31.536167

>  <fragmenstein_mode>  (831) 
expansion

>  <scratch_subdir>  (831) 
/opt/xchem-fragalysis-2/maxwin/BulkDock/SCRATCH/511194/C3758-P497

>  <smiles>  (831) 
c1cc([C@@H]2CCCCN2)[nH]n1

>  <alias>  (831) 
C3758-P497

>  <ref_mols>  (831) 
A4877b,A0556a

>  <inspiration_score>  (831) 
None

>  <tags>  (831) 
BulkDock Fragalysis export,fragmenstein_placed,openbind_a71ev2a_c1_knitwork_impure,openbind_a71ev2a_c1_scaffolds

>  <fragmenstein_outcome>  (831) 
acceptable

>  <fragmenstein_error>  (831) 


>  <distance_score>  (831) 
0.708259

>  <inchikey>  (831) 
YSMNEIYXJLPLOA-UHFFFAOYSA-N

>  <name>  (831) 
C3758-P497

>  <HIPPO Pose ID>  (831) 
419235

>  <Energy>  (831) 
-14.514432

>  <exports>  (831) 
['/opt/xchem-fragalysis-2/maxwin/BulkDock/OUTPUTS/openbind_a71ev2a_c1_knitwork_impure_165VXJF.sdf', '/opt/xchem-fragalysis-2/maxwin/BulkDock/OUTPUTS/openbind_a71ev2a_c1_knitwork_impure_1B07QS4.sdf', '/opt/xchem-fragalysis-2/maxwin/BulkDock/OUTPUTS/openbind_a71ev2a_c1_knitwork_impure_1B07X5R.sdf', '/opt/xchem-fragalysis-2/maxwin/openbind-hippo/a71ev2a/openbind_a71ev2a_c1_scaffold_products.sdf', '/opt/xchem-fragalysis-2/maxwin/openbind-hippo/a71ev2a/cycle_01/bulkdock/openbind_a71ev2a_c1_scaffold_products.sdf', '/opt/xchem-fragalysis-2/maxwin/openbind-hippo/a71ev2a/cycle_01/bulkdock/openbind_a71ev2a_c1_scaffolds.sdf']

>  <fragmenstein_runtime>  (831) 
3.946245

$$$$
C16020-P135
     RDKit          3D

 17 17  0  0  0  0  0  0  0  0999 V2000
    9.0582    9.9665   23.7708 C   0  0  0  0  0  0  0  0  0  0  0  0
    8.0642   10.6757   24.6868 C   0  0  1  0  0  0  0  0  0  0  0  0
    7.2605    9.6764   25.2991 O   0  0  0  0  0  0  0  0  0  0  0  0
    8.7061   11.5386   25.7574 C   0  0  0  0  0  0  0  0  0  0  0  0
    8.7543   13.0122   25.3938 C   0  0  0  0  0  0  0  0  0  0  0  0
    9.3788   13.3289   24.0435 C   0  0  0  0  0  0  0  0  0  0  0  0
   10.8211   12.8400   23.9081 C   0  0  0  0  0  0  0  0  0  0  0  0
   11.3501   13.0241   22.4890 C   0  0  0  0  0  0  0  0  0  0  0  0
   11.5914   14.4763   22.1620 C   0  0  0  0  0  0  0  0  0  0  0  0
   11.3347   15.3338   22.9055 O   0  0  0  0  0  0  0  0  0  0  0  0
   12.2487   14.5258   20.7673 N   0  0  0  0  0  0  0  0  0  0  0  0
   12.7915   15.5900   20.0661 C   0  0  0  0  0  0  0  0  0  0  0  0
   13.0802   15.4713   18.7201 C   0  0  0  0  0  0  0  0  0  0  0  0
   13.6617   16.5483   18.0567 C   0  0  0  0  0  0  0  0  0  0  0  0
   13.9354   17.7020   18.7739 C   0  0  0  0  0  0  0  0  0  0  0  0
   13.6406   17.8660   20.0780 N   0  0  0  0  0  0  0  0  0  0  0  0
   13.0595   16.8036   20.6882 C   0  0  0  0  0  0  0  0  0  0  0  0
  2  1  1  1
  2  3  1  0
  2  4  1  0
  4  5  1  0
  5  6  1  0
  6  7  1  0
  7  8  1  0
  8  9  1  0
  9 10  2  0
  9 11  1  0
 11 12  1  0
 12 13  2  0
 13 14  1  0
 14 15  2  0
 15 16  1  0
 16 17  2  0
 17 12  1  0
M  END
>  <ref_pdb>  (832) 
A2629a

>  <subsites>  (832) 
1 - Active Site

>  <HIPPO Compound ID>  (832) 
20634

>  <energy_score>  (832) 
-16.744482

>  <fragmenstein_mode>  (832) 
expansion

>  <scratch_subdir>  (832) 
/opt/xchem-fragalysis-2/maxwin/BulkDock/SCRATCH/511194/C16020-P135

>  <smiles>  (832) 
C[C@@H](O)CCCCCC(=O)Nc1cccnc1

>  <alias>  (832) 
C16020-P135

>  <ref_mols>  (832) 
A1445a,A2629a

>  <inspiration_score>  (832) 
None

>  <tags>  (832) 
BulkDock Fragalysis export,fragmenstein_placed,openbind_a71ev2a_c1_knitwork_impure,openbind_a71ev2a_c1_scaffolds

>  <fragmenstein_outcome>  (832) 
acceptable

>  <fragmenstein_error>  (832) 


>  <distance_score>  (832) 
0.988372

>  <inchikey>  (832) 
YAKIUUAPXQUGEU-UHFFFAOYSA-N

>  <name>  (832) 
C16020-P135

>  <HIPPO Pose ID>  (832) 
419310

>  <Energy>  (832) 
40.369496

>  <exports>  (832) 
['/opt/xchem-fragalysis-2/maxwin/BulkDock/OUTPUTS/openbind_a71ev2a_c1_knitwork_impure_165VXJF.sdf', '/opt/xchem-fragalysis-2/maxwin/BulkDock/OUTPUTS/openbind_a71ev2a_c1_knitwork_impure_1B07QS4.sdf', '/opt/xchem-fragalysis-2/maxwin/BulkDock/OUTPUTS/openbind_a71ev2a_c1_knitwork_impure_1B07X5R.sdf', '/opt/xchem-fragalysis-2/maxwin/openbind-hippo/a71ev2a/openbind_a71ev2a_c1_scaffold_products.sdf', '/opt/xchem-fragalysis-2/maxwin/openbind-hippo/a71ev2a/cycle_01/bulkdock/openbind_a71ev2a_c1_scaffold_products.sdf', '/opt/xchem-fragalysis-2/maxwin/openbind-hippo/a71ev2a/cycle_01/bulkdock/openbind_a71ev2a_c1_scaffolds.sdf']

>  <fragmenstein_runtime>  (832) 
1.85486

$$$$
C1795-P444
     RDKit          3D

 15 17  0  0  0  0  0  0  0  0999 V2000
   11.8483   15.4411   21.6210 C   0  0  0  0  0  0  0  0  0  0  0  0
   11.8207   14.3489   22.6801 C   0  0  0  0  0  0  0  0  0  0  0  0
   10.5406   14.3993   23.5070 C   0  0  0  0  0  0  0  0  0  0  0  0
    9.3466   14.3815   22.6522 N   0  0  0  0  0  0  0  0  0  0  0  0
    8.1762   14.0769   23.3047 C   0  0  0  0  0  0  0  0  0  0  0  0
    8.1113   13.2455   24.3319 N   0  0  0  0  0  0  0  0  0  0  0  0
    6.8244   13.1629   24.8195 C   0  0  0  0  0  0  0  0  0  0  0  0
    5.9158   14.0008   24.2187 C   0  0  0  0  0  0  0  0  0  0  0  0
    6.6261   14.7421   22.8718 S   0  0  0  0  0  0  0  0  0  0  0  0
    4.4949   14.1845   24.6300 C   0  0  0  0  0  0  0  0  0  0  0  0
    4.2157   13.4542   25.9592 C   0  0  0  0  0  0  0  0  0  0  0  0
    4.9465   12.1034   26.0735 C   0  0  0  0  0  0  0  0  0  0  0  0
    6.4686   12.2779   25.9619 C   0  0  0  0  0  0  0  0  0  0  0  0
    9.3345   15.3868   21.5772 C   0  0  0  0  0  0  0  0  0  0  0  0
   10.6119   15.3355   20.7444 C   0  0  0  0  0  0  0  0  0  0  0  0
  1  2  1  0
  2  3  1  0
  3  4  1  0
  4  5  1  0
  5  6  2  0
  6  7  1  0
  7  8  2  0
  8  9  1  0
  8 10  1  0
 10 11  1  0
 11 12  1  0
 12 13  1  0
  4 14  1  0
 14 15  1  0
 15  1  1  0
  9  5  1  0
 13  7  1  0
M  END
>  <ref_pdb>  (833) 
A4712a

>  <subsites>  (833) 
1 - Active Site

>  <HIPPO Compound ID>  (833) 
85390

>  <energy_score>  (833) 
-96.465011

>  <fragmenstein_mode>  (833) 
expansion

>  <scratch_subdir>  (833) 
/opt/xchem-fragalysis-2/maxwin/BulkDock/SCRATCH/512209/C1795-P444

>  <smiles>  (833) 
C1CCN(c2nc3c(s2)CCCC3)CC1

>  <alias>  (833) 
C1795-P444

>  <ref_mols>  (833) 
A3623a,A4712a

>  <inspiration_score>  (833) 
None

>  <tags>  (833) 
BulkDock Fragalysis export,fragmenstein_placed,openbind_a71ev2a_c1_knitwork_impure,openbind_a71ev2a_c1_scaffolds

>  <fragmenstein_outcome>  (833) 
acceptable

>  <fragmenstein_error>  (833) 


>  <distance_score>  (833) 
0.943391

>  <inchikey>  (833) 
SAYPJXMWJADRCE-UHFFFAOYSA-N

>  <name>  (833) 
C1795-P444

>  <HIPPO Pose ID>  (833) 
419648

>  <Energy>  (833) 
-15.065211

>  <exports>  (833) 
['/opt/xchem-fragalysis-2/maxwin/BulkDock/OUTPUTS/openbind_a71ev2a_c1_knitwork_impure_165VXJF.sdf', '/opt/xchem-fragalysis-2/maxwin/BulkDock/OUTPUTS/openbind_a71ev2a_c1_knitwork_impure_1B07QS4.sdf', '/opt/xchem-fragalysis-2/maxwin/BulkDock/OUTPUTS/openbind_a71ev2a_c1_knitwork_impure_1B07X5R.sdf', '/opt/xchem-fragalysis-2/maxwin/openbind-hippo/a71ev2a/openbind_a71ev2a_c1_scaffold_products.sdf', '/opt/xchem-fragalysis-2/maxwin/openbind-hippo/a71ev2a/cycle_01/bulkdock/openbind_a71ev2a_c1_scaffold_products.sdf', '/opt/xchem-fragalysis-2/maxwin/openbind-hippo/a71ev2a/cycle_01/bulkdock/openbind_a71ev2a_c1_scaffolds.sdf']

>  <fragmenstein_runtime>  (833) 
23.179791

$$$$
C31081-P273
     RDKit          3D

 16 16  0  0  0  0  0  0  0  0999 V2000
    9.6566   10.1693   23.2786 C   0  0  0  0  0  0  0  0  0  0  0  0
    8.4943   10.0136   24.2270 C   0  0  0  0  0  0  0  0  0  0  0  0
    7.9571   11.2041   25.0417 C   0  0  1  0  0  0  0  0  0  0  0  0
    7.8240   12.5295   24.2886 C   0  0  0  0  0  0  0  0  0  0  0  0
    9.2010   13.1627   24.1676 C   0  0  0  0  0  0  0  0  0  0  0  0
   10.1627   12.6564   24.5871 O   0  0  0  0  0  0  0  0  0  0  0  0
    9.0249   14.4832   23.3840 N   0  0  0  0  0  0  0  0  0  0  0  0
    9.9567   15.3582   22.8988 N   0  0  0  0  0  0  0  0  0  0  0  0
    9.8362   15.6124   21.4669 C   0  0  0  0  0  0  0  0  0  0  0  0
   11.1011   15.2989   20.6910 C   0  0  0  0  0  0  0  0  0  0  0  0
   12.2953   15.8720   21.4295 C   0  0  0  0  0  0  0  0  0  0  0  0
   12.4037   15.2267   22.7890 C   0  0  0  0  0  0  0  0  0  0  0  0
   11.1544   15.3715   23.6148 C   0  0  0  0  0  0  0  0  0  0  0  0
   11.2183   15.3386   24.8473 O   0  0  0  0  0  0  0  0  0  0  0  0
    6.4222   10.6013   25.8657 S   0  0  0  0  0  0  0  0  0  0  0  0
    5.7383   12.0755   26.6197 C   0  0  0  0  0  0  0  0  0  0  0  0
  1  2  1  0
  3  2  1  6
  3  4  1  0
  4  5  1  0
  5  6  2  0
  5  7  1  0
  7  8  1  0
  8  9  1  0
  9 10  1  0
 10 11  1  0
 11 12  1  0
 12 13  1  0
 13 14  2  0
  3 15  1  0
 15 16  1  0
 13  8  1  0
M  END
>  <ref_pdb>  (834) 
A4029a

>  <subsites>  (834) 
1 - Active Site

>  <HIPPO Compound ID>  (834) 
5638

>  <energy_score>  (834) 
-21.463371

>  <fragmenstein_mode>  (834) 
expansion

>  <scratch_subdir>  (834) 
/opt/xchem-fragalysis-2/maxwin/BulkDock/SCRATCH/512209/C31081-P273

>  <smiles>  (834) 
CC[C@@H](CC(=O)NN1CCCCC1=O)SC

>  <alias>  (834) 
C31081-P273

>  <ref_mols>  (834) 
A1445a,A4029a

>  <inspiration_score>  (834) 
None

>  <tags>  (834) 
BulkDock Fragalysis export,fragmenstein_placed,openbind_a71ev2a_c1_knitwork_impure,openbind_a71ev2a_c1_scaffolds

>  <fragmenstein_outcome>  (834) 
acceptable

>  <fragmenstein_error>  (834) 


>  <distance_score>  (834) 
0.947696

>  <inchikey>  (834) 
MCFMRUUMBUBRGV-UHFFFAOYSA-N

>  <name>  (834) 
C31081-P273

>  <HIPPO Pose ID>  (834) 
419729

>  <Energy>  (834) 
68.532775

>  <exports>  (834) 
['/opt/xchem-fragalysis-2/maxwin/BulkDock/OUTPUTS/openbind_a71ev2a_c1_knitwork_impure_165VXJF.sdf', '/opt/xchem-fragalysis-2/maxwin/BulkDock/OUTPUTS/openbind_a71ev2a_c1_knitwork_impure_1B07QS4.sdf', '/opt/xchem-fragalysis-2/maxwin/BulkDock/OUTPUTS/openbind_a71ev2a_c1_knitwork_impure_1B07X5R.sdf', '/opt/xchem-fragalysis-2/maxwin/openbind-hippo/a71ev2a/openbind_a71ev2a_c1_scaffold_products.sdf', '/opt/xchem-fragalysis-2/maxwin/openbind-hippo/a71ev2a/cycle_01/bulkdock/openbind_a71ev2a_c1_scaffold_products.sdf', '/opt/xchem-fragalysis-2/maxwin/openbind-hippo/a71ev2a/cycle_01/bulkdock/openbind_a71ev2a_c1_scaffolds.sdf']

>  <fragmenstein_runtime>  (834) 
3.390505

$$$$
C8173-P611
     RDKit          3D

 17 17  0  0  0  0  0  0  0  0999 V2000
    7.5576   13.2072   22.3457 O   0  0  0  0  0  0  0  0  0  0  0  0
    8.3345   13.8311   22.9554 C   0  0  0  0  0  0  0  0  0  0  0  0
    9.2631   14.9988   22.5093 N   0  0  0  0  0  0  0  0  0  0  0  0
    9.4900   15.5684   21.2023 C   0  0  0  0  0  0  0  0  0  0  0  0
   10.9268   15.3133   20.7840 C   0  0  0  0  0  0  0  0  0  0  0  0
   11.1361   15.5563   19.3134 C   0  0  0  0  0  0  0  0  0  0  0  0
   10.5044   14.6547   18.5488 F   0  0  0  0  0  0  0  0  0  0  0  0
   10.7123   16.7840   18.9589 F   0  0  0  0  0  0  0  0  0  0  0  0
   12.4476   15.4527   19.0189 F   0  0  0  0  0  0  0  0  0  0  0  0
    8.7291   13.5648   24.4222 C   0  0  1  0  0  0  0  0  0  0  0  0
    8.6380   14.7058   25.1715 F   0  0  0  0  0  0  0  0  0  0  0  0
    8.0223   12.4414   25.1731 C   0  0  0  0  0  0  0  0  0  0  0  0
    8.1484   11.0773   24.4989 C   0  0  0  0  0  0  0  0  0  0  0  0
    7.4137   10.0066   25.2880 C   0  0  0  0  0  0  0  0  0  0  0  0
    6.0411   10.3367   25.6205 N   0  0  0  0  0  0  0  0  0  0  0  0
    5.8967   11.6324   26.2724 C   0  0  0  0  0  0  0  0  0  0  0  0
    6.5673   12.7693   25.5025 C   0  0  0  0  0  0  0  0  0  0  0  0
  1  2  2  0
  2  3  1  0
  3  4  1  0
  4  5  1  0
  5  6  1  0
  6  7  1  0
  6  8  1  0
  6  9  1  0
  2 10  1  0
 10 11  1  1
 10 12  1  0
 12 13  1  0
 13 14  1  0
 14 15  1  0
 15 16  1  0
 16 17  1  0
 17 12  1  0
M  END
>  <ref_pdb>  (835) 
A5393a

>  <subsites>  (835) 
1 - Active Site

>  <HIPPO Compound ID>  (835) 
1305

>  <energy_score>  (835) 
-8.678656

>  <fragmenstein_mode>  (835) 
expansion

>  <scratch_subdir>  (835) 
/opt/xchem-fragalysis-2/maxwin/BulkDock/SCRATCH/512209/C8173-P611

>  <smiles>  (835) 
O=C(NCCC(F)(F)F)[C@@H](F)C1CCNCC1

>  <alias>  (835) 
C8173-P611

>  <ref_mols>  (835) 
A5393a,A0719a

>  <inspiration_score>  (835) 
None

>  <tags>  (835) 
BulkDock Fragalysis export,fragmenstein_placed,openbind_a71ev2a_c1_knitwork_impure,openbind_a71ev2a_c1_scaffolds

>  <fragmenstein_outcome>  (835) 
acceptable

>  <fragmenstein_error>  (835) 


>  <distance_score>  (835) 
0.932843

>  <inchikey>  (835) 
WPLGLYZQTMZENA-UHFFFAOYSA-N

>  <name>  (835) 
C8173-P611

>  <HIPPO Pose ID>  (835) 
419782

>  <Energy>  (835) 
22.047616

>  <exports>  (835) 
['/opt/xchem-fragalysis-2/maxwin/BulkDock/OUTPUTS/openbind_a71ev2a_c1_knitwork_impure_165VXJF.sdf', '/opt/xchem-fragalysis-2/maxwin/BulkDock/OUTPUTS/openbind_a71ev2a_c1_knitwork_impure_1B07QS4.sdf', '/opt/xchem-fragalysis-2/maxwin/BulkDock/OUTPUTS/openbind_a71ev2a_c1_knitwork_impure_1B07X5R.sdf', '/opt/xchem-fragalysis-2/maxwin/openbind-hippo/a71ev2a/openbind_a71ev2a_c1_scaffold_products.sdf', '/opt/xchem-fragalysis-2/maxwin/openbind-hippo/a71ev2a/cycle_01/bulkdock/openbind_a71ev2a_c1_scaffold_products.sdf', '/opt/xchem-fragalysis-2/maxwin/openbind-hippo/a71ev2a/cycle_01/bulkdock/openbind_a71ev2a_c1_scaffolds.sdf']

>  <fragmenstein_runtime>  (835) 
3.54907

$$$$
C8137-P325
     RDKit          3D

 18 18  0  0  0  0  0  0  0  0999 V2000
   11.1671   15.5009   23.8611 C   0  0  0  0  0  0  0  0  0  0  0  0
   11.7393   14.8544   22.6187 C   0  0  0  0  0  0  0  0  0  0  0  0
   11.0979   15.2973   21.3011 C   0  0  0  0  0  0  0  0  0  0  0  0
    9.6638   14.8136   21.0405 C   0  0  0  0  0  0  0  0  0  0  0  0
    8.5836   15.6498   21.5907 N   0  0  0  0  0  0  0  0  0  0  0  0
    8.7897   17.0921   21.5971 C   0  0  0  0  0  0  0  0  0  0  0  0
    7.2099   14.9840   22.2528 S   0  0  0  0  0  0  0  0  0  0  0  0
    7.0511   13.6241   21.7976 O   0  0  0  0  0  0  0  0  0  0  0  0
    6.1089   15.9128   22.1985 O   0  0  0  0  0  0  0  0  0  0  0  0
    7.7443   14.9928   23.8490 N   0  0  0  0  0  0  0  0  0  0  0  0
    7.1367   14.0301   24.7779 C   0  0  2  0  0  0  0  0  0  0  0  0
    6.9232   14.7381   26.1241 C   0  0  0  0  0  0  0  0  0  0  0  0
    8.0223   12.7732   24.9915 C   0  0  0  0  0  0  0  0  0  0  0  0
    7.0940   11.6093   25.3504 C   0  0  0  0  0  0  0  0  0  0  0  0
    7.8207   10.2887   25.4394 C   0  0  0  0  0  0  0  0  0  0  0  0
    8.6489    9.9666   24.2938 N   0  0  0  0  0  0  0  0  0  0  0  0
    9.6135   11.0193   24.0229 C   0  0  0  0  0  0  0  0  0  0  0  0
    8.9215   12.3558   23.8229 C   0  0  0  0  0  0  0  0  0  0  0  0
  1  2  1  0
  2  3  1  0
  3  4  1  0
  4  5  1  0
  5  6  1  0
  5  7  1  0
  7  8  2  0
  7  9  2  0
  7 10  1  0
 10 11  1  0
 11 12  1  1
 11 13  1  0
 13 14  1  0
 14 15  1  0
 15 16  1  0
 16 17  1  0
 17 18  1  0
 18 13  1  0
M  END
>  <ref_pdb>  (836) 
A4368a

>  <subsites>  (836) 
1 - Active Site

>  <HIPPO Compound ID>  (836) 
39794

>  <energy_score>  (836) 
-52.526444

>  <fragmenstein_mode>  (836) 
expansion

>  <scratch_subdir>  (836) 
/opt/xchem-fragalysis-2/maxwin/BulkDock/SCRATCH/512209/C8137-P325

>  <smiles>  (836) 
CCCCN(C)S(=O)(=O)N[C@H](C)C1CCNCC1

>  <alias>  (836) 
C8137-P325

>  <ref_mols>  (836) 
A0719a,A4368a

>  <inspiration_score>  (836) 
None

>  <tags>  (836) 
BulkDock Fragalysis export,fragmenstein_placed,openbind_a71ev2a_c1_knitwork_impure,openbind_a71ev2a_c1_scaffolds

>  <fragmenstein_outcome>  (836) 
acceptable

>  <fragmenstein_error>  (836) 


>  <distance_score>  (836) 
0.979868

>  <inchikey>  (836) 
MVAWIACTJXPSAP-UHFFFAOYSA-N

>  <name>  (836) 
C8137-P325

>  <HIPPO Pose ID>  (836) 
420103

>  <Energy>  (836) 
-162.259505

>  <exports>  (836) 
['/opt/xchem-fragalysis-2/maxwin/BulkDock/OUTPUTS/openbind_a71ev2a_c1_knitwork_impure_165VXJF.sdf', '/opt/xchem-fragalysis-2/maxwin/BulkDock/OUTPUTS/openbind_a71ev2a_c1_knitwork_impure_1B07QS4.sdf', '/opt/xchem-fragalysis-2/maxwin/BulkDock/OUTPUTS/openbind_a71ev2a_c1_knitwork_impure_1B07X5R.sdf', '/opt/xchem-fragalysis-2/maxwin/openbind-hippo/a71ev2a/openbind_a71ev2a_c1_scaffold_products.sdf', '/opt/xchem-fragalysis-2/maxwin/openbind-hippo/a71ev2a/cycle_01/bulkdock/openbind_a71ev2a_c1_scaffold_products.sdf', '/opt/xchem-fragalysis-2/maxwin/openbind-hippo/a71ev2a/cycle_01/bulkdock/openbind_a71ev2a_c1_scaffolds.sdf']

>  <fragmenstein_runtime>  (836) 
58.915765

$$$$
C8152-P325
     RDKit          3D

 14 14  0  0  0  0  0  0  0  0999 V2000
    9.5043    9.0924   23.8193 C   0  0  0  0  0  0  0  0  0  0  0  0
    9.5088   10.5967   23.9941 C   0  0  0  0  0  0  0  0  0  0  0  0
    8.1556   11.0021   24.2411 O   0  0  0  0  0  0  0  0  0  0  0  0
    7.8656   12.1231   24.9433 C   0  0  0  0  0  0  0  0  0  0  0  0
    6.8530   12.1651   25.6369 O   0  0  0  0  0  0  0  0  0  0  0  0
    8.8178   13.3157   24.7944 C   0  0  2  0  0  0  0  0  0  0  0  0
    8.4527   14.3363   25.7340 O   0  0  0  0  0  0  0  0  0  0  0  0
    8.7726   13.8801   23.3542 C   0  0  0  0  0  0  0  0  0  0  0  0
    9.3654   15.2204   23.1942 N   0  0  0  0  0  0  0  0  0  0  0  0
   10.7564   15.3467   23.6406 C   0  0  0  0  0  0  0  0  0  0  0  0
   11.7711   14.7045   22.6984 C   0  0  0  0  0  0  0  0  0  0  0  0
   11.6320   15.2667   21.2892 C   0  0  0  0  0  0  0  0  0  0  0  0
   10.1891   15.1580   20.8103 C   0  0  0  0  0  0  0  0  0  0  0  0
    9.2106   15.7501   21.8273 C   0  0  0  0  0  0  0  0  0  0  0  0
  1  2  1  0
  2  3  1  0
  3  4  1  0
  4  5  2  0
  4  6  1  0
  6  7  1  1
  6  8  1  0
  8  9  1  0
  9 10  1  0
 10 11  1  0
 11 12  1  0
 12 13  1  0
 13 14  1  0
 14  9  1  0
M  END
>  <ref_pdb>  (837) 
A4368a

>  <subsites>  (837) 
1 - Active Site

>  <HIPPO Compound ID>  (837) 
15069

>  <energy_score>  (837) 
-19.416259

>  <fragmenstein_mode>  (837) 
expansion

>  <scratch_subdir>  (837) 
/opt/xchem-fragalysis-2/maxwin/BulkDock/SCRATCH/512209/C8152-P325

>  <smiles>  (837) 
CCOC(=O)[C@H](O)CN1CCCCC1

>  <alias>  (837) 
C8152-P325

>  <ref_mols>  (837) 
A0719a,A4368a

>  <inspiration_score>  (837) 
None

>  <tags>  (837) 
BulkDock Fragalysis export,fragmenstein_placed,openbind_a71ev2a_c1_knitwork_impure,openbind_a71ev2a_c1_scaffolds

>  <fragmenstein_outcome>  (837) 
acceptable

>  <fragmenstein_error>  (837) 


>  <distance_score>  (837) 
0.779133

>  <inchikey>  (837) 
KNQXNDJGVDPOSN-UHFFFAOYSA-N

>  <name>  (837) 
C8152-P325

>  <HIPPO Pose ID>  (837) 
420111

>  <Energy>  (837) 
60.629829

>  <exports>  (837) 
['/opt/xchem-fragalysis-2/maxwin/BulkDock/OUTPUTS/openbind_a71ev2a_c1_knitwork_impure_165VXJF.sdf', '/opt/xchem-fragalysis-2/maxwin/BulkDock/OUTPUTS/openbind_a71ev2a_c1_knitwork_impure_1B07QS4.sdf', '/opt/xchem-fragalysis-2/maxwin/BulkDock/OUTPUTS/openbind_a71ev2a_c1_knitwork_impure_1B07X5R.sdf', '/opt/xchem-fragalysis-2/maxwin/openbind-hippo/a71ev2a/openbind_a71ev2a_c1_scaffold_products.sdf', '/opt/xchem-fragalysis-2/maxwin/openbind-hippo/a71ev2a/cycle_01/bulkdock/openbind_a71ev2a_c1_scaffold_products.sdf', '/opt/xchem-fragalysis-2/maxwin/openbind-hippo/a71ev2a/cycle_01/bulkdock/openbind_a71ev2a_c1_scaffolds.sdf']

>  <fragmenstein_runtime>  (837) 
1.833099

$$$$
C8176-P325
     RDKit          3D

 15 15  0  0  0  0  0  0  0  0999 V2000
    7.9083   15.1270   25.3545 C   0  0  0  0  0  0  0  0  0  0  0  0
    8.2444   13.7235   24.8372 C   0  0  2  0  0  0  0  0  0  0  0  0
    9.4591   13.3162   25.4754 O   0  0  0  0  0  0  0  0  0  0  0  0
    8.4232   13.7829   23.2810 C   0  0  0  0  0  0  0  0  0  0  0  0
    7.7383   13.0873   22.5188 O   0  0  0  0  0  0  0  0  0  0  0  0
    9.4473   14.7699   22.7394 C   0  0  0  0  0  0  0  0  0  0  0  0
   10.3526   15.1634   23.6850 F   0  0  0  0  0  0  0  0  0  0  0  0
   10.1737   14.2700   21.7105 F   0  0  0  0  0  0  0  0  0  0  0  0
    8.4452   16.2952   22.0865 Br  0  0  0  0  0  0  0  0  0  0  0  0
    7.0967   12.7054   25.1910 C   0  0  2  0  0  0  0  0  0  0  0  0
    6.2563   13.0440   26.4365 C   0  0  0  0  0  0  0  0  0  0  0  0
    5.1084   12.0505   26.5868 C   0  0  0  0  0  0  0  0  0  0  0  0
    5.5897   10.6085   26.6037 C   0  0  0  0  0  0  0  0  0  0  0  0
    6.5339   10.2897   25.5458 N   0  0  0  0  0  0  0  0  0  0  0  0
    7.6052   11.2580   25.3241 C   0  0  0  0  0  0  0  0  0  0  0  0
  2  1  1  1
  2  3  1  0
  2  4  1  0
  4  5  2  0
  4  6  1  0
  6  7  1  0
  6  8  1  0
  6  9  1  0
  2 10  1  0
 10 11  1  1
 11 12  1  0
 12 13  1  0
 13 14  1  0
 14 15  1  0
 15 10  1  0
M  END
>  <ref_pdb>  (838) 
A4368a

>  <subsites>  (838) 
1 - Active Site

>  <HIPPO Compound ID>  (838) 
7115

>  <energy_score>  (838) 
-14.607233

>  <fragmenstein_mode>  (838) 
expansion

>  <scratch_subdir>  (838) 
/opt/xchem-fragalysis-2/maxwin/BulkDock/SCRATCH/512209/C8176-P325

>  <smiles>  (838) 
C[C@](O)(C(=O)C(F)(F)Br)[C@@H]1CCCNC1

>  <alias>  (838) 
C8176-P325

>  <ref_mols>  (838) 
A0719a,A4368a

>  <inspiration_score>  (838) 
None

>  <tags>  (838) 
BulkDock Fragalysis export,fragmenstein_placed,openbind_a71ev2a_c1_knitwork_impure,openbind_a71ev2a_c1_scaffolds

>  <fragmenstein_outcome>  (838) 
acceptable

>  <fragmenstein_error>  (838) 


>  <distance_score>  (838) 
0.955279

>  <inchikey>  (838) 
UGMVKJPKQZMZKU-UHFFFAOYSA-N

>  <name>  (838) 
C8176-P325

>  <HIPPO Pose ID>  (838) 
420130

>  <Energy>  (838) 
74.389495

>  <exports>  (838) 
['/opt/xchem-fragalysis-2/maxwin/BulkDock/OUTPUTS/openbind_a71ev2a_c1_knitwork_impure_165VXJF.sdf', '/opt/xchem-fragalysis-2/maxwin/BulkDock/OUTPUTS/openbind_a71ev2a_c1_knitwork_impure_1B07QS4.sdf', '/opt/xchem-fragalysis-2/maxwin/BulkDock/OUTPUTS/openbind_a71ev2a_c1_knitwork_impure_1B07X5R.sdf', '/opt/xchem-fragalysis-2/maxwin/openbind-hippo/a71ev2a/openbind_a71ev2a_c1_scaffold_products.sdf', '/opt/xchem-fragalysis-2/maxwin/openbind-hippo/a71ev2a/cycle_01/bulkdock/openbind_a71ev2a_c1_scaffold_products.sdf', '/opt/xchem-fragalysis-2/maxwin/openbind-hippo/a71ev2a/cycle_01/bulkdock/openbind_a71ev2a_c1_scaffolds.sdf']

>  <fragmenstein_runtime>  (838) 
1.265984

$$$$
C7585-P457
     RDKit          3D

 13 13  0  0  0  0  0  0  0  0999 V2000
    9.3281    8.7280   23.2240 C   0  0  0  0  0  0  0  0  0  0  0  0
    9.2507   10.1762   23.6560 C   0  0  0  0  0  0  0  0  0  0  0  0
    8.1126   10.4113   24.6319 C   0  0  0  0  0  0  0  0  0  0  0  0
    7.9499   12.1494   25.0195 S   0  0  0  0  0  0  0  0  0  0  0  0
    9.2736   12.7155   25.1902 O   0  0  0  0  0  0  0  0  0  0  0  0
    7.0027   12.7713   24.1271 O   0  0  0  0  0  0  0  0  0  0  0  0
    7.3318   12.1014   26.6161 N   0  0  0  0  0  0  0  0  0  0  0  0
    5.9236   12.0034   26.7106 N   0  0  0  0  0  0  0  0  0  0  0  0
    5.4797   12.6045   27.9960 C   0  0  0  0  0  0  0  0  0  0  0  0
    3.9535   12.5339   28.2263 C   0  0  0  0  0  0  0  0  0  0  0  0
    3.2736   11.5223   27.3976 N   0  0  0  0  0  0  0  0  0  0  0  0
    4.1273   10.3163   27.3587 C   0  0  0  0  0  0  0  0  0  0  0  0
    5.4752   10.5847   26.6465 C   0  0  0  0  0  0  0  0  0  0  0  0
  1  2  1  0
  2  3  1  0
  3  4  1  0
  4  5  2  0
  4  6  2  0
  4  7  1  0
  7  8  1  0
  8  9  1  0
  9 10  1  0
 10 11  1  0
 11 12  1  0
 12 13  1  0
 13  8  1  0
M  END
>  <ref_pdb>  (839) 
A4751a

>  <subsites>  (839) 
1 - Active Site

>  <HIPPO Compound ID>  (839) 
32415

>  <energy_score>  (839) 
-38.363768

>  <fragmenstein_mode>  (839) 
expansion

>  <scratch_subdir>  (839) 
/opt/xchem-fragalysis-2/maxwin/BulkDock/SCRATCH/512209/C7585-P457

>  <smiles>  (839) 
CCCS(=O)(=O)NN1CCNCC1

>  <alias>  (839) 
C7585-P457

>  <ref_mols>  (839) 
A4751a,A0719a

>  <inspiration_score>  (839) 
None

>  <tags>  (839) 
BulkDock Fragalysis export,fragmenstein_placed,openbind_a71ev2a_c1_knitwork_impure,openbind_a71ev2a_c1_scaffolds

>  <fragmenstein_outcome>  (839) 
acceptable

>  <fragmenstein_error>  (839) 


>  <distance_score>  (839) 
0.992475

>  <inchikey>  (839) 
ROBQLCHSXQDWEG-UHFFFAOYSA-N

>  <name>  (839) 
C7585-P457

>  <HIPPO Pose ID>  (839) 
420305

>  <Energy>  (839) 
92.710729

>  <exports>  (839) 
['/opt/xchem-fragalysis-2/maxwin/BulkDock/OUTPUTS/openbind_a71ev2a_c1_knitwork_impure_165VXJF.sdf', '/opt/xchem-fragalysis-2/maxwin/BulkDock/OUTPUTS/openbind_a71ev2a_c1_knitwork_impure_1B07QS4.sdf', '/opt/xchem-fragalysis-2/maxwin/BulkDock/OUTPUTS/openbind_a71ev2a_c1_knitwork_impure_1B07X5R.sdf', '/opt/xchem-fragalysis-2/maxwin/openbind-hippo/a71ev2a/openbind_a71ev2a_c1_scaffold_products.sdf', '/opt/xchem-fragalysis-2/maxwin/openbind-hippo/a71ev2a/cycle_01/bulkdock/openbind_a71ev2a_c1_scaffold_products.sdf', '/opt/xchem-fragalysis-2/maxwin/openbind-hippo/a71ev2a/cycle_01/bulkdock/openbind_a71ev2a_c1_scaffolds.sdf']

>  <fragmenstein_runtime>  (839) 
3.610599

$$$$
C12320-P135
     RDKit          3D

 12 12  0  0  0  0  0  0  0  0999 V2000
    9.2818   12.9037   25.1037 C   0  0  0  0  0  0  0  0  0  0  0  0
    9.6018   11.8680   24.0423 C   0  0  0  0  0  0  0  0  0  0  0  0
   10.7569   12.2493   23.1296 C   0  0  0  0  0  0  0  0  0  0  0  0
   10.5285   13.8072   22.3066 S   0  0  0  0  0  0  0  0  0  0  0  0
   10.8339   14.8219   23.2825 O   0  0  0  0  0  0  0  0  0  0  0  0
    9.2164   13.7703   21.6849 O   0  0  0  0  0  0  0  0  0  0  0  0
   11.7367   13.6597   21.1449 N   0  0  0  0  0  0  0  0  0  0  0  0
   12.3556   14.7893   20.6012 C   0  0  0  0  0  0  0  0  0  0  0  0
   12.6091   14.9108   19.1975 C   0  0  0  0  0  0  0  0  0  0  0  0
   13.2693   16.0879   18.9156 C   0  0  0  0  0  0  0  0  0  0  0  0
   13.4991   16.9319   20.3841 S   0  0  0  0  0  0  0  0  0  0  0  0
   12.8394   15.7692   21.3557 N   0  0  0  0  0  0  0  0  0  0  0  0
  1  2  1  0
  2  3  1  0
  3  4  1  0
  4  5  2  0
  4  6  2  0
  4  7  1  0
  7  8  1  0
  8  9  1  0
  9 10  2  0
 10 11  1  0
 11 12  1  0
 12  8  2  0
M  END
>  <ref_pdb>  (840) 
A2629a

>  <subsites>  (840) 
1 - Active Site

>  <HIPPO Compound ID>  (840) 
1142

>  <energy_score>  (840) 
-28.400387

>  <fragmenstein_mode>  (840) 
expansion

>  <scratch_subdir>  (840) 
/opt/xchem-fragalysis-2/maxwin/BulkDock/SCRATCH/512209/C12320-P135

>  <smiles>  (840) 
CCCS(=O)(=O)Nc1ccsn1

>  <alias>  (840) 
C12320-P135

>  <ref_mols>  (840) 
A0719a,A2629a

>  <inspiration_score>  (840) 
None

>  <tags>  (840) 
BulkDock Fragalysis export,fragmenstein_placed,openbind_a71ev2a_c1_knitwork_impure,openbind_a71ev2a_c1_scaffolds

>  <fragmenstein_outcome>  (840) 
acceptable

>  <fragmenstein_error>  (840) 


>  <distance_score>  (840) 
0.87334

>  <inchikey>  (840) 
JWMDCIUJPJCIMA-UHFFFAOYSA-N

>  <name>  (840) 
C12320-P135

>  <HIPPO Pose ID>  (840) 
420571

>  <Energy>  (840) 
-89.096403

>  <exports>  (840) 
['/opt/xchem-fragalysis-2/maxwin/BulkDock/OUTPUTS/openbind_a71ev2a_c1_knitwork_impure_165VXJF.sdf', '/opt/xchem-fragalysis-2/maxwin/BulkDock/OUTPUTS/openbind_a71ev2a_c1_knitwork_impure_1B07QS4.sdf', '/opt/xchem-fragalysis-2/maxwin/BulkDock/OUTPUTS/openbind_a71ev2a_c1_knitwork_impure_1B07X5R.sdf', '/opt/xchem-fragalysis-2/maxwin/openbind-hippo/a71ev2a/openbind_a71ev2a_c1_scaffold_products.sdf', '/opt/xchem-fragalysis-2/maxwin/openbind-hippo/a71ev2a/cycle_01/bulkdock/openbind_a71ev2a_c1_scaffold_products.sdf', '/opt/xchem-fragalysis-2/maxwin/openbind-hippo/a71ev2a/cycle_01/bulkdock/openbind_a71ev2a_c1_scaffolds.sdf']

>  <fragmenstein_runtime>  (840) 
2.179682

$$$$
C12323-P135
     RDKit          3D

 12 12  0  0  0  0  0  0  0  0999 V2000
    9.3616   12.9546   25.0769 C   0  0  0  0  0  0  0  0  0  0  0  0
    9.6557   11.8990   24.0276 C   0  0  0  0  0  0  0  0  0  0  0  0
   10.8067   12.2528   23.0976 C   0  0  0  0  0  0  0  0  0  0  0  0
   10.5818   13.8017   22.2547 S   0  0  0  0  0  0  0  0  0  0  0  0
   10.9596   14.8364   23.1841 O   0  0  0  0  0  0  0  0  0  0  0  0
    9.2510   13.7907   21.6760 O   0  0  0  0  0  0  0  0  0  0  0  0
   11.7580   13.6490   21.0560 N   0  0  0  0  0  0  0  0  0  0  0  0
   12.3528   14.7659   20.4277 C   0  0  0  0  0  0  0  0  0  0  0  0
   12.8056   15.9785   21.0451 C   0  0  0  0  0  0  0  0  0  0  0  0
   13.3801   16.9007   20.2696 N   0  0  0  0  0  0  0  0  0  0  0  0
   13.3815   16.3222   18.7180 S   0  0  0  0  0  0  0  0  0  0  0  0
   12.6271   14.8327   19.0783 C   0  0  0  0  0  0  0  0  0  0  0  0
  1  2  1  0
  2  3  1  0
  3  4  1  0
  4  5  2  0
  4  6  2  0
  4  7  1  0
  7  8  1  0
  8  9  1  0
  9 10  2  0
 10 11  1  0
 11 12  1  0
 12  8  2  0
M  END
>  <ref_pdb>  (841) 
A2629a

>  <subsites>  (841) 
1 - Active Site

>  <HIPPO Compound ID>  (841) 
14910

>  <energy_score>  (841) 
-46.751001

>  <fragmenstein_mode>  (841) 
expansion

>  <scratch_subdir>  (841) 
/opt/xchem-fragalysis-2/maxwin/BulkDock/SCRATCH/512209/C12323-P135

>  <smiles>  (841) 
CCCS(=O)(=O)Nc1cnsc1

>  <alias>  (841) 
C12323-P135

>  <ref_mols>  (841) 
A0719a,A2629a

>  <inspiration_score>  (841) 
None

>  <tags>  (841) 
BulkDock Fragalysis export,fragmenstein_placed,openbind_a71ev2a_c1_knitwork_impure,openbind_a71ev2a_c1_scaffolds

>  <fragmenstein_outcome>  (841) 
acceptable

>  <fragmenstein_error>  (841) 


>  <distance_score>  (841) 
0.830206

>  <inchikey>  (841) 
ZNTOHSLRMARLLO-UHFFFAOYSA-N

>  <name>  (841) 
C12323-P135

>  <HIPPO Pose ID>  (841) 
420573

>  <Energy>  (841) 
-46.84767

>  <exports>  (841) 
['/opt/xchem-fragalysis-2/maxwin/BulkDock/OUTPUTS/openbind_a71ev2a_c1_knitwork_impure_165VXJF.sdf', '/opt/xchem-fragalysis-2/maxwin/BulkDock/OUTPUTS/openbind_a71ev2a_c1_knitwork_impure_1B07QS4.sdf', '/opt/xchem-fragalysis-2/maxwin/BulkDock/OUTPUTS/openbind_a71ev2a_c1_knitwork_impure_1B07X5R.sdf', '/opt/xchem-fragalysis-2/maxwin/openbind-hippo/a71ev2a/openbind_a71ev2a_c1_scaffold_products.sdf', '/opt/xchem-fragalysis-2/maxwin/openbind-hippo/a71ev2a/cycle_01/bulkdock/openbind_a71ev2a_c1_scaffold_products.sdf', '/opt/xchem-fragalysis-2/maxwin/openbind-hippo/a71ev2a/cycle_01/bulkdock/openbind_a71ev2a_c1_scaffolds.sdf']

>  <fragmenstein_runtime>  (841) 
1.520922

$$$$
C8141-P214
     RDKit          3D

 14 14  0  0  0  0  0  0  0  0999 V2000
   10.8014   15.5873   20.4701 C   0  0  0  0  0  0  0  0  0  0  0  0
    9.6157   14.9298   21.1003 C   0  0  0  0  0  0  0  0  0  0  0  0
    9.5455   14.6232   22.4008 C   0  0  0  0  0  0  0  0  0  0  0  0
    8.3803   13.8818   22.9876 C   0  0  0  0  0  0  0  0  0  0  0  0
    7.4564   13.4856   22.2798 O   0  0  0  0  0  0  0  0  0  0  0  0
    8.4401   13.6455   24.5175 C   0  0  2  0  0  0  0  0  0  0  0  0
    8.1440   14.9791   25.2077 C   0  0  0  0  0  0  0  0  0  0  0  0
    9.7926   13.2983   24.8791 O   0  0  0  0  0  0  0  0  0  0  0  0
    7.5300   12.5230   25.0671 C   0  0  0  0  0  0  0  0  0  0  0  0
    7.7892   11.1503   24.4450 C   0  0  0  0  0  0  0  0  0  0  0  0
    6.9765   10.0737   25.1481 C   0  0  0  0  0  0  0  0  0  0  0  0
    5.5619   10.3775   25.2502 N   0  0  0  0  0  0  0  0  0  0  0  0
    5.2892   11.6821   25.8341 C   0  0  0  0  0  0  0  0  0  0  0  0
    6.0265   12.8106   25.1056 C   0  0  0  0  0  0  0  0  0  0  0  0
  1  2  1  0
  2  3  2  3
  3  4  1  0
  4  5  2  0
  4  6  1  0
  6  7  1  1
  6  8  1  0
  6  9  1  0
  9 10  1  0
 10 11  1  0
 11 12  1  0
 12 13  1  0
 13 14  1  0
 14  9  1  0
M  END
>  <ref_pdb>  (842) 
A3550a

>  <subsites>  (842) 
1 - Active Site

>  <HIPPO Compound ID>  (842) 
2413

>  <energy_score>  (842) 
-33.555116

>  <fragmenstein_mode>  (842) 
expansion

>  <scratch_subdir>  (842) 
/opt/xchem-fragalysis-2/maxwin/BulkDock/SCRATCH/512209/C8141-P214

>  <smiles>  (842) 
CC=CC(=O)[C@](C)(O)C1CCNCC1

>  <alias>  (842) 
C8141-P214

>  <ref_mols>  (842) 
A0719a,A3550a

>  <inspiration_score>  (842) 
None

>  <tags>  (842) 
BulkDock Fragalysis export,fragmenstein_placed,openbind_a71ev2a_c1_knitwork_impure,openbind_a71ev2a_c1_scaffolds

>  <fragmenstein_outcome>  (842) 
acceptable

>  <fragmenstein_error>  (842) 


>  <distance_score>  (842) 
0.961849

>  <inchikey>  (842) 
YNRBPEHVWJFOKW-UHFFFAOYSA-N

>  <name>  (842) 
C8141-P214

>  <HIPPO Pose ID>  (842) 
420883

>  <Energy>  (842) 
51.736318

>  <exports>  (842) 
['/opt/xchem-fragalysis-2/maxwin/BulkDock/OUTPUTS/openbind_a71ev2a_c1_knitwork_impure_165VXJF.sdf', '/opt/xchem-fragalysis-2/maxwin/BulkDock/OUTPUTS/openbind_a71ev2a_c1_knitwork_impure_1B07QS4.sdf', '/opt/xchem-fragalysis-2/maxwin/BulkDock/OUTPUTS/openbind_a71ev2a_c1_knitwork_impure_1B07X5R.sdf', '/opt/xchem-fragalysis-2/maxwin/openbind-hippo/a71ev2a/openbind_a71ev2a_c1_scaffold_products.sdf', '/opt/xchem-fragalysis-2/maxwin/openbind-hippo/a71ev2a/cycle_01/bulkdock/openbind_a71ev2a_c1_scaffold_products.sdf', '/opt/xchem-fragalysis-2/maxwin/openbind-hippo/a71ev2a/cycle_01/bulkdock/openbind_a71ev2a_c1_scaffolds.sdf']

>  <fragmenstein_runtime>  (842) 
2.05017

$$$$
C8142-P214
     RDKit          3D

 12 12  0  0  0  0  0  0  0  0999 V2000
    9.5622   15.2164   21.3463 C   0  0  0  0  0  0  0  0  0  0  0  0
    9.5864   14.6432   22.7382 C   0  0  0  0  0  0  0  0  0  0  0  0
   10.5985   14.7220   23.4342 O   0  0  0  0  0  0  0  0  0  0  0  0
    8.3044   13.9574   23.2067 C   0  0  0  0  0  0  0  0  0  0  0  0
    8.3442   13.6731   24.7056 C   0  0  1  0  0  0  0  0  0  0  0  0
    8.1193   14.8805   25.4368 O   0  0  0  0  0  0  0  0  0  0  0  0
    7.3875   12.5993   25.2497 C   0  0  2  0  0  0  0  0  0  0  0  0
    7.5212   11.2452   24.5731 C   0  0  0  0  0  0  0  0  0  0  0  0
    6.7474   10.1993   25.3572 C   0  0  0  0  0  0  0  0  0  0  0  0
    5.3550   10.6312   25.8024 C   0  0  0  0  0  0  0  0  0  0  0  0
    5.2475   12.0079   26.2817 N   0  0  0  0  0  0  0  0  0  0  0  0
    5.9108   12.9695   25.3883 C   0  0  0  0  0  0  0  0  0  0  0  0
  1  2  1  0
  2  3  2  0
  2  4  1  0
  4  5  1  0
  5  6  1  1
  5  7  1  0
  7  8  1  6
  8  9  1  0
  9 10  1  0
 10 11  1  0
 11 12  1  0
 12  7  1  0
M  END
>  <ref_pdb>  (843) 
A3550a

>  <subsites>  (843) 
1 - Active Site

>  <HIPPO Compound ID>  (843) 
8876

>  <energy_score>  (843) 
-29.939681

>  <fragmenstein_mode>  (843) 
expansion

>  <scratch_subdir>  (843) 
/opt/xchem-fragalysis-2/maxwin/BulkDock/SCRATCH/512209/C8142-P214

>  <smiles>  (843) 
CC(=O)C[C@@H](O)[C@@H]1CCCNC1

>  <alias>  (843) 
C8142-P214

>  <ref_mols>  (843) 
A0719a,A3550a

>  <inspiration_score>  (843) 
None

>  <tags>  (843) 
BulkDock Fragalysis export,fragmenstein_placed,openbind_a71ev2a_c1_knitwork_impure,openbind_a71ev2a_c1_scaffolds

>  <fragmenstein_outcome>  (843) 
acceptable

>  <fragmenstein_error>  (843) 


>  <distance_score>  (843) 
0.986388

>  <inchikey>  (843) 
ZGJROAZBUZCTHO-UHFFFAOYSA-N

>  <name>  (843) 
C8142-P214

>  <HIPPO Pose ID>  (843) 
420884

>  <Energy>  (843) 
19.842394

>  <exports>  (843) 
['/opt/xchem-fragalysis-2/maxwin/BulkDock/OUTPUTS/openbind_a71ev2a_c1_knitwork_impure_165VXJF.sdf', '/opt/xchem-fragalysis-2/maxwin/BulkDock/OUTPUTS/openbind_a71ev2a_c1_knitwork_impure_1B07QS4.sdf', '/opt/xchem-fragalysis-2/maxwin/BulkDock/OUTPUTS/openbind_a71ev2a_c1_knitwork_impure_1B07X5R.sdf', '/opt/xchem-fragalysis-2/maxwin/openbind-hippo/a71ev2a/openbind_a71ev2a_c1_scaffold_products.sdf', '/opt/xchem-fragalysis-2/maxwin/openbind-hippo/a71ev2a/cycle_01/bulkdock/openbind_a71ev2a_c1_scaffold_products.sdf', '/opt/xchem-fragalysis-2/maxwin/openbind-hippo/a71ev2a/cycle_01/bulkdock/openbind_a71ev2a_c1_scaffolds.sdf']

>  <fragmenstein_runtime>  (843) 
1.280396

$$$$
C1304-P208
     RDKit          3D

 12 12  0  0  0  0  0  0  0  0999 V2000
    6.5175   13.9754   25.6207 O   0  0  0  0  0  0  0  0  0  0  0  0
    7.5042   13.6010   25.1303 C   0  0  0  0  0  0  0  0  0  0  0  0
    8.6891   14.5188   24.8774 C   0  0  0  0  0  0  0  0  0  0  0  0
    8.8867   14.7905   23.3838 C   0  0  0  0  0  0  0  0  0  0  0  0
    9.7443   15.9526   23.1564 N   0  0  0  0  0  0  0  0  0  0  0  0
   11.1332   15.8075   23.6197 C   0  0  0  0  0  0  0  0  0  0  0  0
   12.0466   14.9715   22.7023 C   0  0  0  0  0  0  0  0  0  0  0  0
   12.0574   15.4784   21.3344 N   0  0  0  0  0  0  0  0  0  0  0  0
   10.6873   15.5513   20.8089 C   0  0  0  0  0  0  0  0  0  0  0  0
    9.7499   16.3664   21.7294 C   0  0  0  0  0  0  0  0  0  0  0  0
    7.8901   12.2082   24.6042 N   0  0  0  0  0  0  0  0  0  0  0  0
    7.2055   11.0076   24.6547 O   0  0  0  0  0  0  0  0  0  0  0  0
  1  2  2  0
  2  3  1  0
  3  4  1  0
  4  5  1  0
  5  6  1  0
  6  7  1  0
  7  8  1  0
  8  9  1  0
  9 10  1  0
  2 11  1  0
 11 12  1  0
 10  5  1  0
M  END
>  <ref_pdb>  (844) 
A3706b

>  <subsites>  (844) 
1 - Active Site

>  <HIPPO Compound ID>  (844) 
4769

>  <energy_score>  (844) 
-42.389088

>  <fragmenstein_mode>  (844) 
expansion

>  <scratch_subdir>  (844) 
/opt/xchem-fragalysis-2/maxwin/BulkDock/SCRATCH/512209/C1304-P208

>  <smiles>  (844) 
O=C(CCN1CCNCC1)NO

>  <alias>  (844) 
C1304-P208

>  <ref_mols>  (844) 
A3706b,A1080a

>  <inspiration_score>  (844) 
None

>  <tags>  (844) 
BulkDock Fragalysis export,fragmenstein_placed,openbind_a71ev2a_c1_knitwork_impure,openbind_a71ev2a_c1_scaffolds

>  <fragmenstein_outcome>  (844) 
acceptable

>  <fragmenstein_error>  (844) 


>  <distance_score>  (844) 
0.950992

>  <inchikey>  (844) 
URQCIPKMHTUWBP-UHFFFAOYSA-N

>  <name>  (844) 
C1304-P208

>  <HIPPO Pose ID>  (844) 
420989

>  <Energy>  (844) 
115.200076

>  <exports>  (844) 
['/opt/xchem-fragalysis-2/maxwin/BulkDock/OUTPUTS/openbind_a71ev2a_c1_knitwork_impure_165VXJF.sdf', '/opt/xchem-fragalysis-2/maxwin/BulkDock/OUTPUTS/openbind_a71ev2a_c1_knitwork_impure_1B07QS4.sdf', '/opt/xchem-fragalysis-2/maxwin/BulkDock/OUTPUTS/openbind_a71ev2a_c1_knitwork_impure_1B07X5R.sdf', '/opt/xchem-fragalysis-2/maxwin/openbind-hippo/a71ev2a/openbind_a71ev2a_c1_scaffold_products.sdf', '/opt/xchem-fragalysis-2/maxwin/openbind-hippo/a71ev2a/cycle_01/bulkdock/openbind_a71ev2a_c1_scaffold_products.sdf', '/opt/xchem-fragalysis-2/maxwin/openbind-hippo/a71ev2a/cycle_01/bulkdock/openbind_a71ev2a_c1_scaffolds.sdf']

>  <fragmenstein_runtime>  (844) 
2.535524

$$$$
C7596-P190
     RDKit          3D

 13 13  0  0  0  0  0  0  0  0999 V2000
   12.3469   16.6422   22.0873 C   0  0  0  0  0  0  0  0  0  0  0  0
   11.6431   15.9598   23.2377 C   0  0  0  0  0  0  0  0  0  0  0  0
   10.6260   14.9697   22.7039 C   0  0  0  0  0  0  0  0  0  0  0  0
   10.0684   13.8933   23.9994 S   0  0  0  0  0  0  0  0  0  0  0  0
   11.2087   13.3070   24.6686 O   0  0  0  0  0  0  0  0  0  0  0  0
    9.0123   14.5170   24.7624 O   0  0  0  0  0  0  0  0  0  0  0  0
    9.3679   12.6469   23.1003 N   0  0  0  0  0  0  0  0  0  0  0  0
    8.7900   11.6009   23.9747 C   0  0  0  0  0  0  0  0  0  0  0  0
    9.0089   10.2348   23.3589 C   0  0  0  0  0  0  0  0  0  0  0  0
    8.1591    9.1314   23.9592 C   0  0  0  0  0  0  0  0  0  0  0  0
    6.9021    9.4990   24.5918 N   0  0  0  0  0  0  0  0  0  0  0  0
    6.8566   10.7932   25.2382 C   0  0  0  0  0  0  0  0  0  0  0  0
    7.3526   11.8957   24.3249 C   0  0  0  0  0  0  0  0  0  0  0  0
  1  2  1  0
  2  3  1  0
  3  4  1  0
  4  5  2  0
  4  6  2  0
  4  7  1  0
  7  8  1  0
  8  9  1  0
  9 10  1  0
 10 11  1  0
 11 12  1  0
 12 13  1  0
 13  8  1  0
M  END
>  <ref_pdb>  (845) 
A3509a

>  <subsites>  (845) 
1 - Active Site

>  <HIPPO Compound ID>  (845) 
7596

>  <energy_score>  (845) 
-43.746147

>  <fragmenstein_mode>  (845) 
expansion

>  <scratch_subdir>  (845) 
/opt/xchem-fragalysis-2/maxwin/BulkDock/SCRATCH/512209/C7596-P190

>  <smiles>  (845) 
CCCS(=O)(=O)NC1CCNCC1

>  <alias>  (845) 
C7596-P190

>  <ref_mols>  (845) 
A0719a,A3509a

>  <inspiration_score>  (845) 
None

>  <tags>  (845) 
BulkDock Fragalysis export,fragmenstein_placed,openbind_a71ev2a_c1_knitwork_impure,openbind_a71ev2a_c1_scaffolds

>  <fragmenstein_outcome>  (845) 
acceptable

>  <fragmenstein_error>  (845) 


>  <distance_score>  (845) 
0.943838

>  <inchikey>  (845) 
HMFFHCKOIQTSMA-UHFFFAOYSA-N

>  <name>  (845) 
C7596-P190

>  <HIPPO Pose ID>  (845) 
421273

>  <Energy>  (845) 
-64.853524

>  <exports>  (845) 
['/opt/xchem-fragalysis-2/maxwin/BulkDock/OUTPUTS/openbind_a71ev2a_c1_knitwork_impure_165VXJF.sdf', '/opt/xchem-fragalysis-2/maxwin/BulkDock/OUTPUTS/openbind_a71ev2a_c1_knitwork_impure_1B07QS4.sdf', '/opt/xchem-fragalysis-2/maxwin/BulkDock/OUTPUTS/openbind_a71ev2a_c1_knitwork_impure_1B07X5R.sdf', '/opt/xchem-fragalysis-2/maxwin/openbind-hippo/a71ev2a/openbind_a71ev2a_c1_scaffold_products.sdf', '/opt/xchem-fragalysis-2/maxwin/openbind-hippo/a71ev2a/cycle_01/bulkdock/openbind_a71ev2a_c1_scaffold_products.sdf', '/opt/xchem-fragalysis-2/maxwin/openbind-hippo/a71ev2a/cycle_01/bulkdock/openbind_a71ev2a_c1_scaffolds.sdf']

>  <fragmenstein_runtime>  (845) 
2.446628

$$$$
C7644-P190
     RDKit          3D

 13 13  0  0  0  0  0  0  0  0999 V2000
   12.5994   15.9276   23.0140 C   0  0  0  0  0  0  0  0  0  0  0  0
   11.1514   16.2520   23.3130 C   0  0  0  0  0  0  0  0  0  0  0  0
   10.2272   15.1350   22.8875 C   0  0  0  0  0  0  0  0  0  0  0  0
   10.1055   13.8004   24.0587 S   0  0  0  0  0  0  0  0  0  0  0  0
   11.4101   13.2989   24.4142 O   0  0  0  0  0  0  0  0  0  0  0  0
    9.1584   14.1888   25.0774 O   0  0  0  0  0  0  0  0  0  0  0  0
    9.4305   12.6858   23.0230 N   0  0  0  0  0  0  0  0  0  0  0  0
    8.5130   11.6314   23.4128 C   0  0  2  0  0  0  0  0  0  0  0  0
    7.6406   11.8850   24.5833 C   0  0  0  0  0  0  0  0  0  0  0  0
    7.0683   10.8792   25.2472 C   0  0  0  0  0  0  0  0  0  0  0  0
    7.2699    9.4580   24.8673 C   0  0  0  0  0  0  0  0  0  0  0  0
    8.2999    9.1315   23.7884 C   0  0  0  0  0  0  0  0  0  0  0  0
    9.2067   10.2765   23.3791 C   0  0  0  0  0  0  0  0  0  0  0  0
  1  2  1  0
  2  3  1  0
  3  4  1  0
  4  5  2  0
  4  6  2  0
  4  7  1  0
  8  7  1  1
  8  9  1  0
  9 10  2  0
 10 11  1  0
 11 12  1  0
 12 13  1  0
 13  8  1  0
M  END
>  <ref_pdb>  (846) 
A3509a

>  <subsites>  (846) 
1 - Active Site

>  <HIPPO Compound ID>  (846) 
3419

>  <energy_score>  (846) 
-24.087084

>  <fragmenstein_mode>  (846) 
expansion

>  <scratch_subdir>  (846) 
/opt/xchem-fragalysis-2/maxwin/BulkDock/SCRATCH/512209/C7644-P190

>  <smiles>  (846) 
CCCS(=O)(=O)N[C@@H]1C=CCCC1

>  <alias>  (846) 
C7644-P190

>  <ref_mols>  (846) 
A0719a,A3509a

>  <inspiration_score>  (846) 
None

>  <tags>  (846) 
BulkDock Fragalysis export,fragmenstein_placed,openbind_a71ev2a_c1_knitwork_impure,openbind_a71ev2a_c1_scaffolds

>  <fragmenstein_outcome>  (846) 
acceptable

>  <fragmenstein_error>  (846) 


>  <distance_score>  (846) 
0.926346

>  <inchikey>  (846) 
OBYGXQCROQSNDR-UHFFFAOYSA-N

>  <name>  (846) 
C7644-P190

>  <HIPPO Pose ID>  (846) 
421299

>  <Energy>  (846) 
-61.45144

>  <exports>  (846) 
['/opt/xchem-fragalysis-2/maxwin/BulkDock/OUTPUTS/openbind_a71ev2a_c1_knitwork_impure_165VXJF.sdf', '/opt/xchem-fragalysis-2/maxwin/BulkDock/OUTPUTS/openbind_a71ev2a_c1_knitwork_impure_1B07QS4.sdf', '/opt/xchem-fragalysis-2/maxwin/BulkDock/OUTPUTS/openbind_a71ev2a_c1_knitwork_impure_1B07X5R.sdf', '/opt/xchem-fragalysis-2/maxwin/openbind-hippo/a71ev2a/openbind_a71ev2a_c1_scaffold_products.sdf', '/opt/xchem-fragalysis-2/maxwin/openbind-hippo/a71ev2a/cycle_01/bulkdock/openbind_a71ev2a_c1_scaffold_products.sdf', '/opt/xchem-fragalysis-2/maxwin/openbind-hippo/a71ev2a/cycle_01/bulkdock/openbind_a71ev2a_c1_scaffolds.sdf']

>  <fragmenstein_runtime>  (846) 
2.043846

$$$$
C7652-P190
     RDKit          3D

 12 12  0  0  0  0  0  0  0  0999 V2000
   12.1378   16.1652   22.9176 C   0  0  0  0  0  0  0  0  0  0  0  0
   10.6229   16.0347   22.8338 C   0  0  0  0  0  0  0  0  0  0  0  0
   10.1626   14.5890   22.6740 C   0  0  0  0  0  0  0  0  0  0  0  0
    9.8695   13.8031   24.2557 S   0  0  0  0  0  0  0  0  0  0  0  0
   10.9888   14.0911   25.1226 O   0  0  0  0  0  0  0  0  0  0  0  0
    8.5122   14.0632   24.6760 O   0  0  0  0  0  0  0  0  0  0  0  0
   10.0130   12.1865   23.8905 N   0  0  0  0  0  0  0  0  0  0  0  0
    8.8625   11.3865   23.5026 C   0  0  2  0  0  0  0  0  0  0  0  0
    7.9052   11.1296   24.6168 C   0  0  0  0  0  0  0  0  0  0  0  0
    7.5837    9.8356   24.7220 C   0  0  0  0  0  0  0  0  0  0  0  0
    8.3377    9.0019   23.7476 C   0  0  0  0  0  0  0  0  0  0  0  0
    9.3563    9.9697   23.1781 C   0  0  0  0  0  0  0  0  0  0  0  0
  1  2  1  0
  2  3  1  0
  3  4  1  0
  4  5  2  0
  4  6  2  0
  4  7  1  0
  8  7  1  1
  8  9  1  0
  9 10  2  0
 10 11  1  0
 11 12  1  0
 12  8  1  0
M  END
>  <ref_pdb>  (847) 
A3509a

>  <subsites>  (847) 
1 - Active Site

>  <HIPPO Compound ID>  (847) 
84716

>  <energy_score>  (847) 
-17.75776

>  <fragmenstein_mode>  (847) 
expansion

>  <scratch_subdir>  (847) 
/opt/xchem-fragalysis-2/maxwin/BulkDock/SCRATCH/512209/C7652-P190

>  <smiles>  (847) 
CCCS(=O)(=O)N[C@@H]1C=CCC1

>  <alias>  (847) 
C7652-P190

>  <ref_mols>  (847) 
A0719a,A3509a

>  <inspiration_score>  (847) 
None

>  <tags>  (847) 
BulkDock Fragalysis export,fragmenstein_placed,openbind_a71ev2a_c1_knitwork_impure,openbind_a71ev2a_c1_scaffolds

>  <fragmenstein_outcome>  (847) 
acceptable

>  <fragmenstein_error>  (847) 


>  <distance_score>  (847) 
0.975656

>  <inchikey>  (847) 
BGLQMBYCJQNPGY-UHFFFAOYSA-N

>  <name>  (847) 
C7652-P190

>  <HIPPO Pose ID>  (847) 
421305

>  <Energy>  (847) 
-72.175692

>  <exports>  (847) 
['/opt/xchem-fragalysis-2/maxwin/BulkDock/OUTPUTS/openbind_a71ev2a_c1_knitwork_impure_165VXJF.sdf', '/opt/xchem-fragalysis-2/maxwin/BulkDock/OUTPUTS/openbind_a71ev2a_c1_knitwork_impure_1B07QS4.sdf', '/opt/xchem-fragalysis-2/maxwin/BulkDock/OUTPUTS/openbind_a71ev2a_c1_knitwork_impure_1B07X5R.sdf', '/opt/xchem-fragalysis-2/maxwin/openbind-hippo/a71ev2a/openbind_a71ev2a_c1_scaffold_products.sdf', '/opt/xchem-fragalysis-2/maxwin/openbind-hippo/a71ev2a/cycle_01/bulkdock/openbind_a71ev2a_c1_scaffold_products.sdf', '/opt/xchem-fragalysis-2/maxwin/openbind-hippo/a71ev2a/cycle_01/bulkdock/openbind_a71ev2a_c1_scaffolds.sdf']

>  <fragmenstein_runtime>  (847) 
2.226408

$$$$
C1783-P270
     RDKit          3D

 15 17  0  0  0  0  0  0  0  0999 V2000
   11.5273   15.5491   21.1078 C   0  0  0  0  0  0  0  0  0  0  0  0
   11.7411   15.2166   22.5765 C   0  0  0  0  0  0  0  0  0  0  0  0
   10.6824   15.8947   23.4353 C   0  0  0  0  0  0  0  0  0  0  0  0
    9.2497   15.6771   22.9230 C   0  0  2  0  0  0  0  0  0  0  0  0
    8.7367   14.3102   23.3248 C   0  0  0  0  0  0  0  0  0  0  0  0
    9.3547   13.1681   23.1066 N   0  0  0  0  0  0  0  0  0  0  0  0
    8.6914   12.1295   23.7130 C   0  0  0  0  0  0  0  0  0  0  0  0
    7.6104   12.5065   24.4673 C   0  0  0  0  0  0  0  0  0  0  0  0
    7.2847   14.1673   24.2273 S   0  0  0  0  0  0  0  0  0  0  0  0
    6.7878   11.7047   25.3835 C   0  0  0  0  0  0  0  0  0  0  0  0
    7.0779    9.9186   25.3540 S   0  0  0  0  0  0  0  0  0  0  0  0
    8.3213    9.6444   24.0417 C   0  0  0  0  0  0  0  0  0  0  0  0
    9.2277   10.7638   23.5708 C   0  0  0  0  0  0  0  0  0  0  0  0
    9.1035   15.9607   21.4856 N   0  0  0  0  0  0  0  0  0  0  0  0
   10.0967   15.2519   20.6721 C   0  0  0  0  0  0  0  0  0  0  0  0
  1  2  1  0
  2  3  1  0
  3  4  1  0
  4  5  1  6
  5  6  2  0
  6  7  1  0
  7  8  2  0
  8  9  1  0
  8 10  1  0
 10 11  1  0
 11 12  1  0
 12 13  1  0
  4 14  1  0
 14 15  1  0
 15  1  1  0
  9  5  1  0
 13  7  1  0
M  END
>  <ref_pdb>  (848) 
A4020a

>  <subsites>  (848) 
1 - Active Site

>  <HIPPO Compound ID>  (848) 
8426

>  <energy_score>  (848) 
-61.441535

>  <fragmenstein_mode>  (848) 
expansion

>  <scratch_subdir>  (848) 
/opt/xchem-fragalysis-2/maxwin/BulkDock/SCRATCH/512209/C1783-P270

>  <smiles>  (848) 
C1CC[C@H](c2nc3c(s2)CSCC3)NC1

>  <alias>  (848) 
C1783-P270

>  <ref_mols>  (848) 
A3623a,A4020a

>  <inspiration_score>  (848) 
None

>  <tags>  (848) 
BulkDock Fragalysis export,fragmenstein_placed,openbind_a71ev2a_c1_knitwork_impure,openbind_a71ev2a_c1_scaffolds

>  <fragmenstein_outcome>  (848) 
acceptable

>  <fragmenstein_error>  (848) 


>  <distance_score>  (848) 
0.95555

>  <inchikey>  (848) 
JRLTZXBVYPPMPH-UHFFFAOYSA-N

>  <name>  (848) 
C1783-P270

>  <HIPPO Pose ID>  (848) 
422185

>  <Energy>  (848) 
42.068613

>  <exports>  (848) 
['/opt/xchem-fragalysis-2/maxwin/BulkDock/OUTPUTS/openbind_a71ev2a_c1_knitwork_impure_165VXJF.sdf', '/opt/xchem-fragalysis-2/maxwin/BulkDock/OUTPUTS/openbind_a71ev2a_c1_knitwork_impure_1B07QS4.sdf', '/opt/xchem-fragalysis-2/maxwin/BulkDock/OUTPUTS/openbind_a71ev2a_c1_knitwork_impure_1B07X5R.sdf', '/opt/xchem-fragalysis-2/maxwin/openbind-hippo/a71ev2a/openbind_a71ev2a_c1_scaffold_products.sdf', '/opt/xchem-fragalysis-2/maxwin/openbind-hippo/a71ev2a/cycle_01/bulkdock/openbind_a71ev2a_c1_scaffold_products.sdf', '/opt/xchem-fragalysis-2/maxwin/openbind-hippo/a71ev2a/cycle_01/bulkdock/openbind_a71ev2a_c1_scaffolds.sdf']

>  <fragmenstein_runtime>  (848) 
49.359591

$$$$
C1805-P270
     RDKit          3D

 15 17  0  0  0  0  0  0  0  0999 V2000
   11.7377   15.2463   22.7089 C   0  0  0  0  0  0  0  0  0  0  0  0
   10.6379   15.9002   23.5350 C   0  0  0  0  0  0  0  0  0  0  0  0
    9.2394   15.7052   22.9336 C   0  0  0  0  0  0  0  0  0  0  0  0
    8.7039   14.3486   23.3023 C   0  0  0  0  0  0  0  0  0  0  0  0
    9.3050   13.2091   23.0505 N   0  0  0  0  0  0  0  0  0  0  0  0
    8.6672   12.1699   23.6830 C   0  0  0  0  0  0  0  0  0  0  0  0
    7.5930   12.5418   24.4495 C   0  0  0  0  0  0  0  0  0  0  0  0
    7.2620   14.2033   24.2165 S   0  0  0  0  0  0  0  0  0  0  0  0
    6.7896   11.7366   25.3805 C   0  0  0  0  0  0  0  0  0  0  0  0
    7.0895    9.9514   25.3514 S   0  0  0  0  0  0  0  0  0  0  0  0
    8.3359    9.6836   24.0397 C   0  0  0  0  0  0  0  0  0  0  0  0
    9.2268   10.8120   23.5596 C   0  0  0  0  0  0  0  0  0  0  0  0
    9.2298   15.9526   21.4224 C   0  0  0  0  0  0  0  0  0  0  0  0
   10.4138   15.3120   20.7055 C   0  0  0  0  0  0  0  0  0  0  0  0
   11.6835   15.6829   21.3215 N   0  0  0  0  0  0  0  0  0  0  0  0
  1  2  1  0
  2  3  1  0
  3  4  1  0
  4  5  2  0
  5  6  1  0
  6  7  2  0
  7  8  1  0
  7  9  1  0
  9 10  1  0
 10 11  1  0
 11 12  1  0
  3 13  1  0
 13 14  1  0
 14 15  1  0
 15  1  1  0
  8  4  1  0
 12  6  1  0
M  END
>  <ref_pdb>  (849) 
A4020a

>  <subsites>  (849) 
1 - Active Site

>  <HIPPO Compound ID>  (849) 
18433

>  <energy_score>  (849) 
-76.856495

>  <fragmenstein_mode>  (849) 
expansion

>  <scratch_subdir>  (849) 
/opt/xchem-fragalysis-2/maxwin/BulkDock/SCRATCH/512209/C1805-P270

>  <smiles>  (849) 
C1CC(c2nc3c(s2)CSCC3)CCN1

>  <alias>  (849) 
C1805-P270

>  <ref_mols>  (849) 
A3623a,A4020a

>  <inspiration_score>  (849) 
None

>  <tags>  (849) 
BulkDock Fragalysis export,fragmenstein_placed,openbind_a71ev2a_c1_knitwork_impure,openbind_a71ev2a_c1_scaffolds

>  <fragmenstein_outcome>  (849) 
acceptable

>  <fragmenstein_error>  (849) 


>  <distance_score>  (849) 
0.912782

>  <inchikey>  (849) 
NDFBKSVVKUASCT-UHFFFAOYSA-N

>  <name>  (849) 
C1805-P270

>  <HIPPO Pose ID>  (849) 
422187

>  <Energy>  (849) 
14.379204

>  <exports>  (849) 
['/opt/xchem-fragalysis-2/maxwin/BulkDock/OUTPUTS/openbind_a71ev2a_c1_knitwork_impure_165VXJF.sdf', '/opt/xchem-fragalysis-2/maxwin/BulkDock/OUTPUTS/openbind_a71ev2a_c1_knitwork_impure_1B07QS4.sdf', '/opt/xchem-fragalysis-2/maxwin/BulkDock/OUTPUTS/openbind_a71ev2a_c1_knitwork_impure_1B07X5R.sdf', '/opt/xchem-fragalysis-2/maxwin/openbind-hippo/a71ev2a/openbind_a71ev2a_c1_scaffold_products.sdf', '/opt/xchem-fragalysis-2/maxwin/openbind-hippo/a71ev2a/cycle_01/bulkdock/openbind_a71ev2a_c1_scaffold_products.sdf', '/opt/xchem-fragalysis-2/maxwin/openbind-hippo/a71ev2a/cycle_01/bulkdock/openbind_a71ev2a_c1_scaffolds.sdf']

>  <fragmenstein_runtime>  (849) 
54.598981

$$$$
C7479-P440
     RDKit          3D

 23 24  0  0  0  0  0  0  0  0999 V2000
    3.4743   12.6230   18.0669 C   0  0  0  0  0  0  0  0  0  0  0  0
    3.2909   12.6082   19.5817 C   0  0  0  0  0  0  0  0  0  0  0  0
    2.2430   11.5807   19.9737 C   0  0  0  0  0  0  0  0  0  0  0  0
    2.9338   13.9418   20.0964 C   0  0  0  0  0  0  0  0  0  0  0  0
    1.9596   14.5988   19.4042 O   0  0  0  0  0  0  0  0  0  0  0  0
    1.8527   15.7843   20.0355 C   0  0  0  0  0  0  0  0  0  0  0  0
    2.6413   15.9351   21.0764 N   0  0  0  0  0  0  0  0  0  0  0  0
    3.3235   14.7328   21.1622 C   0  0  0  0  0  0  0  0  0  0  0  0
    4.2738   14.4353   22.2905 C   0  0  0  0  0  0  0  0  0  0  0  0
    5.5201   15.1532   22.0616 N   0  0  0  0  0  0  0  0  0  0  0  0
    6.9706   14.3908   22.4093 S   0  0  0  0  0  0  0  0  0  0  0  0
    6.7751   13.0644   21.8358 O   0  0  0  0  0  0  0  0  0  0  0  0
    7.9296   15.2142   21.6989 O   0  0  0  0  0  0  0  0  0  0  0  0
    6.9010   14.5404   23.9334 N   0  0  0  0  0  0  0  0  0  0  0  0
    8.2567   14.3675   24.6362 S   0  0  2  0  0  0  0  0  0  0  0  0
    8.0083   15.0155   26.2787 C   0  0  0  0  0  0  0  0  0  0  0  0
    9.5144   14.9530   24.2108 O   0  0  0  0  0  0  0  0  0  0  0  0
    8.5920   12.6358   24.9827 C   0  0  0  0  0  0  0  0  0  0  0  0
    9.3466   11.9524   23.8377 C   0  0  0  0  0  0  0  0  0  0  0  0
    9.6879   10.5073   24.1879 C   0  0  0  0  0  0  0  0  0  0  0  0
    8.4623    9.7176   24.6200 C   0  0  0  0  0  0  0  0  0  0  0  0
    7.6831   10.4100   25.7284 C   0  0  0  0  0  0  0  0  0  0  0  0
    7.3403   11.8512   25.3704 C   0  0  0  0  0  0  0  0  0  0  0  0
  1  2  1  0
  2  3  1  0
  2  4  1  0
  4  5  1  0
  5  6  1  0
  6  7  2  0
  7  8  1  0
  8  9  1  0
  9 10  1  0
 10 11  1  0
 11 12  2  0
 11 13  2  0
 11 14  1  0
 14 15  2  0
 15 16  1  1
 15 17  2  0
 15 18  1  0
 18 19  1  0
 19 20  1  0
 20 21  1  0
 21 22  1  0
 22 23  1  0
  8  4  2  0
 23 18  1  0
M  END
>  <ref_pdb>  (850) 
A4707a

>  <subsites>  (850) 
1 - Active Site

>  <HIPPO Compound ID>  (850) 
10575

>  <energy_score>  (850) 
-244.674125

>  <fragmenstein_mode>  (850) 
expansion

>  <scratch_subdir>  (850) 
/opt/xchem-fragalysis-2/maxwin/BulkDock/SCRATCH/512209/C7479-P440

>  <smiles>  (850) 
CC(C)c1ocnc1CNS(=O)(=O)N=[S@](C)(=O)C1CCCCC1

>  <alias>  (850) 
C7479-P440

>  <ref_mols>  (850) 
A3623a,A4707a

>  <inspiration_score>  (850) 
None

>  <tags>  (850) 
BulkDock Fragalysis export,fragmenstein_placed,openbind_a71ev2a_c1_knitwork_impure,openbind_a71ev2a_c1_scaffolds

>  <fragmenstein_outcome>  (850) 
acceptable

>  <fragmenstein_error>  (850) 


>  <distance_score>  (850) 
0.827313

>  <inchikey>  (850) 
GFTCXYDTVIIUSE-UHFFFAOYSA-N

>  <name>  (850) 
C7479-P440

>  <HIPPO Pose ID>  (850) 
423382

>  <Energy>  (850) 
-248.228392

>  <exports>  (850) 
['/opt/xchem-fragalysis-2/maxwin/BulkDock/OUTPUTS/openbind_a71ev2a_c1_knitwork_impure_165VXJF.sdf', '/opt/xchem-fragalysis-2/maxwin/BulkDock/OUTPUTS/openbind_a71ev2a_c1_knitwork_impure_1B07QS4.sdf', '/opt/xchem-fragalysis-2/maxwin/BulkDock/OUTPUTS/openbind_a71ev2a_c1_knitwork_impure_1B07X5R.sdf', '/opt/xchem-fragalysis-2/maxwin/openbind-hippo/a71ev2a/openbind_a71ev2a_c1_scaffold_products.sdf', '/opt/xchem-fragalysis-2/maxwin/openbind-hippo/a71ev2a/cycle_01/bulkdock/openbind_a71ev2a_c1_scaffold_products.sdf', '/opt/xchem-fragalysis-2/maxwin/openbind-hippo/a71ev2a/cycle_01/bulkdock/openbind_a71ev2a_c1_scaffolds.sdf']

>  <fragmenstein_runtime>  (850) 
4.244498

$$$$
C26145-P124
     RDKit          3D

 22 23  0  0  0  0  0  0  0  0999 V2000
    2.3282   10.5350   29.1070 C   0  0  0  0  0  0  0  0  0  0  0  0
    1.9185   11.9981   29.3460 C   0  0  0  0  0  0  0  0  0  0  0  0
    1.1100   12.0478   30.6463 C   0  0  0  0  0  0  0  0  0  0  0  0
    3.1758   12.9310   29.3316 C   0  0  0  0  0  0  0  0  0  0  0  0
    3.7993   12.9144   27.9114 C   0  0  0  0  0  0  0  0  0  0  0  0
    3.1600   12.8753   26.9366 O   0  0  0  0  0  0  0  0  0  0  0  0
    5.3335   13.0338   28.1022 N   0  0  0  0  0  0  0  0  0  0  0  0
    6.3877   13.2254   27.1320 C   0  0  0  0  0  0  0  0  0  0  0  0
    6.6534   12.1342   26.0267 C   0  0  2  0  0  0  0  0  0  0  0  0
    6.1893   10.7830   26.5425 C   0  0  0  0  0  0  0  0  0  0  0  0
    8.1017   12.2299   25.6430 N   0  0  0  0  0  0  0  0  0  0  0  0
    8.5179   13.5964   25.2302 C   0  0  0  0  0  0  0  0  0  0  0  0
    9.9198   13.5326   24.6576 C   0  0  0  0  0  0  0  0  0  0  0  0
    9.9377   12.1268   24.1987 C   0  0  0  0  0  0  0  0  0  0  0  0
   10.8850   11.5465   23.3611 C   0  0  0  0  0  0  0  0  0  0  0  0
   10.7818   10.1926   23.0968 C   0  0  0  0  0  0  0  0  0  0  0  0
    9.7449    9.4656   23.6736 C   0  0  0  0  0  0  0  0  0  0  0  0
    8.8029   10.0828   24.5169 C   0  0  0  0  0  0  0  0  0  0  0  0
    8.8706   11.4289   24.7898 C   0  0  0  0  0  0  0  0  0  0  0  0
    2.8723   14.3981   29.7924 C   0  0  0  0  0  0  0  0  0  0  0  0
    3.5941   15.5111   29.0161 C   0  0  0  0  0  0  0  0  0  0  0  0
    3.2154   14.5797   31.2795 C   0  0  0  0  0  0  0  0  0  0  0  0
  1  2  1  0
  2  3  1  0
  2  4  1  0
  4  5  1  0
  5  6  2  0
  5  7  1  0
  7  8  1  0
  8  9  1  0
  9 10  1  1
  9 11  1  0
 11 12  1  0
 12 13  1  0
 13 14  1  0
 14 15  2  0
 15 16  1  0
 16 17  2  0
 17 18  1  0
 18 19  2  0
  4 20  1  0
 20 21  1  0
 20 22  1  0
 19 11  1  0
 19 14  1  0
M  END
>  <ref_pdb>  (851) 
A1778a

>  <subsites>  (851) 
1 - Active Site

>  <HIPPO Compound ID>  (851) 
5151

>  <energy_score>  (851) 
-21.758164

>  <fragmenstein_mode>  (851) 
expansion

>  <scratch_subdir>  (851) 
/opt/xchem-fragalysis-2/maxwin/BulkDock/SCRATCH/512209/C26145-P124

>  <smiles>  (851) 
CC(C)C(C(=O)NC[C@H](C)N1CCc2ccccc21)C(C)C

>  <alias>  (851) 
C26145-P124

>  <ref_mols>  (851) 
A2846a,A1778a

>  <inspiration_score>  (851) 
None

>  <tags>  (851) 
BulkDock Fragalysis export,fragmenstein_placed,openbind_a71ev2a_c1_knitwork_impure,openbind_a71ev2a_c1_scaffolds

>  <fragmenstein_outcome>  (851) 
acceptable

>  <fragmenstein_error>  (851) 


>  <distance_score>  (851) 
0.986611

>  <inchikey>  (851) 
AKWDCTOUIAETMB-UHFFFAOYSA-N

>  <name>  (851) 
C26145-P124

>  <HIPPO Pose ID>  (851) 
423518

>  <Energy>  (851) 
81.790461

>  <exports>  (851) 
['/opt/xchem-fragalysis-2/maxwin/BulkDock/OUTPUTS/openbind_a71ev2a_c1_knitwork_impure_165VXJF.sdf', '/opt/xchem-fragalysis-2/maxwin/BulkDock/OUTPUTS/openbind_a71ev2a_c1_knitwork_impure_1B07QS4.sdf', '/opt/xchem-fragalysis-2/maxwin/BulkDock/OUTPUTS/openbind_a71ev2a_c1_knitwork_impure_1B07X5R.sdf', '/opt/xchem-fragalysis-2/maxwin/openbind-hippo/a71ev2a/openbind_a71ev2a_c1_scaffold_products.sdf', '/opt/xchem-fragalysis-2/maxwin/openbind-hippo/a71ev2a/cycle_01/bulkdock/openbind_a71ev2a_c1_scaffold_products.sdf', '/opt/xchem-fragalysis-2/maxwin/openbind-hippo/a71ev2a/cycle_01/bulkdock/openbind_a71ev2a_c1_scaffolds.sdf']

>  <fragmenstein_runtime>  (851) 
5.56656

$$$$
C2376-P151
     RDKit          3D

 14 14  0  0  0  0  0  0  0  0999 V2000
   12.1072   15.2678   22.6079 C   0  0  0  0  0  0  0  0  0  0  0  0
   10.9793   15.0582   23.5963 C   0  0  0  0  0  0  0  0  0  0  0  0
    9.7654   14.4767   22.8783 C   0  0  0  0  0  0  0  0  0  0  0  0
    8.4892   14.5098   23.7266 C   0  0  1  0  0  0  0  0  0  0  0  0
    7.2827   14.3691   22.7903 C   0  0  0  0  0  0  0  0  0  0  0  0
    8.4364   13.5529   24.9691 C   0  0  2  0  0  0  0  0  0  0  0  0
    7.6261   14.2582   26.0725 C   0  0  0  0  0  0  0  0  0  0  0  0
    9.6923   13.4463   25.5160 F   0  0  0  0  0  0  0  0  0  0  0  0
    7.9371   12.1000   24.6625 C   0  0  0  0  0  0  0  0  0  0  0  0
    7.2815   11.4069   25.8673 C   0  0  0  0  0  0  0  0  0  0  0  0
    7.0789    9.9147   25.7141 C   0  0  0  0  0  0  0  0  0  0  0  0
    8.2891    9.2616   25.2841 N   0  0  0  0  0  0  0  0  0  0  0  0
    8.8687    9.7577   24.0541 C   0  0  0  0  0  0  0  0  0  0  0  0
    9.0659   11.2648   24.0364 C   0  0  0  0  0  0  0  0  0  0  0  0
  1  2  1  0
  2  3  1  0
  3  4  1  0
  4  5  1  6
  4  6  1  0
  6  7  1  1
  6  8  1  0
  6  9  1  0
  9 10  1  0
 10 11  1  0
 11 12  1  0
 12 13  1  0
 13 14  1  0
 14  9  1  0
M  END
>  <ref_pdb>  (852) 
A3194a

>  <subsites>  (852) 
1 - Active Site

>  <HIPPO Compound ID>  (852) 
35516

>  <energy_score>  (852) 
-35.381754

>  <fragmenstein_mode>  (852) 
expansion

>  <scratch_subdir>  (852) 
/opt/xchem-fragalysis-2/maxwin/BulkDock/SCRATCH/512209/C2376-P151

>  <smiles>  (852) 
CCC[C@@H](C)[C@](C)(F)C1CCNCC1

>  <alias>  (852) 
C2376-P151

>  <ref_mols>  (852) 
A1779a,A3194a

>  <inspiration_score>  (852) 
None

>  <tags>  (852) 
BulkDock Fragalysis export,fragmenstein_placed,openbind_a71ev2a_c1_knitwork_impure,openbind_a71ev2a_c1_scaffolds

>  <fragmenstein_outcome>  (852) 
acceptable

>  <fragmenstein_error>  (852) 


>  <distance_score>  (852) 
0.986968

>  <inchikey>  (852) 
ZCLPDSDKUWWASP-UHFFFAOYSA-N

>  <name>  (852) 
C2376-P151

>  <HIPPO Pose ID>  (852) 
423599

>  <Energy>  (852) 
29.772688

>  <exports>  (852) 
['/opt/xchem-fragalysis-2/maxwin/BulkDock/OUTPUTS/openbind_a71ev2a_c1_knitwork_impure_165VXJF.sdf', '/opt/xchem-fragalysis-2/maxwin/BulkDock/OUTPUTS/openbind_a71ev2a_c1_knitwork_impure_1B07QS4.sdf', '/opt/xchem-fragalysis-2/maxwin/BulkDock/OUTPUTS/openbind_a71ev2a_c1_knitwork_impure_1B07X5R.sdf', '/opt/xchem-fragalysis-2/maxwin/openbind-hippo/a71ev2a/openbind_a71ev2a_c1_scaffold_products.sdf', '/opt/xchem-fragalysis-2/maxwin/openbind-hippo/a71ev2a/cycle_01/bulkdock/openbind_a71ev2a_c1_scaffold_products.sdf', '/opt/xchem-fragalysis-2/maxwin/openbind-hippo/a71ev2a/cycle_01/bulkdock/openbind_a71ev2a_c1_scaffolds.sdf']

>  <fragmenstein_runtime>  (852) 
2.692845

$$$$
C2384-P151
     RDKit          3D

 15 15  0  0  0  0  0  0  0  0999 V2000
   11.7339   14.9615   22.4211 C   0  0  0  0  0  0  0  0  0  0  0  0
   10.7571   15.7449   23.2811 C   0  0  0  0  0  0  0  0  0  0  0  0
    9.2754   15.5098   22.9762 C   0  0  1  0  0  0  0  0  0  0  0  0
    8.9650   15.9792   21.5511 C   0  0  0  0  0  0  0  0  0  0  0  0
    8.7233   14.0886   23.1736 C   0  0  0  0  0  0  0  0  0  0  0  0
    8.1583   13.5179   22.2288 O   0  0  0  0  0  0  0  0  0  0  0  0
    8.7514   13.4060   24.5715 C   0  0  0  0  0  0  0  0  0  0  0  0
    7.8466   14.1850   25.5413 C   0  0  0  0  0  0  0  0  0  0  0  0
   10.1536   13.3755   25.1689 C   0  0  0  0  0  0  0  0  0  0  0  0
    8.2429   11.9240   24.3529 C   0  0  2  0  0  0  0  0  0  0  0  0
    7.6483   11.2184   25.5738 C   0  0  0  0  0  0  0  0  0  0  0  0
    7.4265    9.7214   25.4001 C   0  0  0  0  0  0  0  0  0  0  0  0
    8.4074    9.0346   24.4529 C   0  0  0  0  0  0  0  0  0  0  0  0
    9.6076    9.8089   24.2543 N   0  0  0  0  0  0  0  0  0  0  0  0
    9.3050   11.0699   23.6118 C   0  0  0  0  0  0  0  0  0  0  0  0
  1  2  1  0
  2  3  1  0
  3  4  1  6
  3  5  1  0
  5  6  2  0
  5  7  1  0
  7  8  1  0
  7  9  1  0
 10  7  1  1
 10 11  1  0
 11 12  1  0
 12 13  1  0
 13 14  1  0
 14 15  1  0
 15 10  1  0
M  END
>  <ref_pdb>  (853) 
A3194a

>  <subsites>  (853) 
1 - Active Site

>  <HIPPO Compound ID>  (853) 
79657

>  <energy_score>  (853) 
-40.030997

>  <fragmenstein_mode>  (853) 
expansion

>  <scratch_subdir>  (853) 
/opt/xchem-fragalysis-2/maxwin/BulkDock/SCRATCH/512209/C2384-P151

>  <smiles>  (853) 
CC[C@@H](C)C(=O)C(C)(C)[C@@H]1CCCNC1

>  <alias>  (853) 
C2384-P151

>  <ref_mols>  (853) 
A1779a,A3194a

>  <inspiration_score>  (853) 
None

>  <tags>  (853) 
BulkDock Fragalysis export,fragmenstein_placed,openbind_a71ev2a_c1_knitwork_impure,openbind_a71ev2a_c1_scaffolds

>  <fragmenstein_outcome>  (853) 
acceptable

>  <fragmenstein_error>  (853) 


>  <distance_score>  (853) 
0.959978

>  <inchikey>  (853) 
DURBHPZRTCPDPC-UHFFFAOYSA-N

>  <name>  (853) 
C2384-P151

>  <HIPPO Pose ID>  (853) 
423607

>  <Energy>  (853) 
42.833537

>  <exports>  (853) 
['/opt/xchem-fragalysis-2/maxwin/BulkDock/OUTPUTS/openbind_a71ev2a_c1_knitwork_impure_165VXJF.sdf', '/opt/xchem-fragalysis-2/maxwin/BulkDock/OUTPUTS/openbind_a71ev2a_c1_knitwork_impure_1B07QS4.sdf', '/opt/xchem-fragalysis-2/maxwin/BulkDock/OUTPUTS/openbind_a71ev2a_c1_knitwork_impure_1B07X5R.sdf', '/opt/xchem-fragalysis-2/maxwin/openbind-hippo/a71ev2a/openbind_a71ev2a_c1_scaffold_products.sdf', '/opt/xchem-fragalysis-2/maxwin/openbind-hippo/a71ev2a/cycle_01/bulkdock/openbind_a71ev2a_c1_scaffold_products.sdf', '/opt/xchem-fragalysis-2/maxwin/openbind-hippo/a71ev2a/cycle_01/bulkdock/openbind_a71ev2a_c1_scaffolds.sdf']

>  <fragmenstein_runtime>  (853) 
2.233251

$$$$
C3219-P551
     RDKit          3D

 22 24  0  0  0  0  0  0  0  0999 V2000
   10.5413   15.4650   29.7677 O   0  0  0  0  0  0  0  0  0  0  0  0
    9.9988   15.9302   28.7865 C   0  0  0  0  0  0  0  0  0  0  0  0
    8.5621   15.8798   28.2496 C   0  0  0  0  0  0  0  0  0  0  0  0
    9.0869   16.5743   26.9695 C   0  0  0  0  0  0  0  0  0  0  0  0
    9.0862   15.7099   25.7949 N   0  0  0  0  0  0  0  0  0  0  0  0
    8.1166   15.6583   24.5799 C   0  0  0  0  0  0  0  0  0  0  0  0
    7.1277   16.2486   24.3740 O   0  0  0  0  0  0  0  0  0  0  0  0
    8.6507   14.5864   23.5635 C   0  0  2  0  0  0  0  0  0  0  0  0
    8.5694   13.1297   24.0336 C   0  0  0  0  0  0  0  0  0  0  0  0
    9.3826   12.1357   23.4560 C   0  0  0  0  0  0  0  0  0  0  0  0
    9.2196   10.7898   23.7811 C   0  0  0  0  0  0  0  0  0  0  0  0
    8.2382   10.4141   24.6889 C   0  0  0  0  0  0  0  0  0  0  0  0
    7.4170   11.3747   25.2682 C   0  0  0  0  0  0  0  0  0  0  0  0
    7.5736   12.7208   24.9358 C   0  0  0  0  0  0  0  0  0  0  0  0
    9.9307   14.9475   22.9130 N   0  0  0  0  0  0  0  0  0  0  0  0
    9.8235   15.6376   21.6251 C   0  0  0  0  0  0  0  0  0  0  0  0
   11.0744   15.5351   20.7715 C   0  0  0  0  0  0  0  0  0  0  0  0
   12.2716   15.9555   21.5973 C   0  0  0  0  0  0  0  0  0  0  0  0
   12.3989   15.0379   22.7918 C   0  0  0  0  0  0  0  0  0  0  0  0
   11.1323   14.8851   23.5991 C   0  0  0  0  0  0  0  0  0  0  0  0
   11.2078   14.6081   24.7998 O   0  0  0  0  0  0  0  0  0  0  0  0
   10.4858   16.7812   27.6056 C   0  0  0  0  0  0  0  0  0  0  0  0
  1  2  2  0
  2  3  1  0
  3  4  1  0
  4  5  1  0
  5  6  1  0
  6  7  2  0
  6  8  1  0
  8  9  1  0
  9 10  2  0
 10 11  1  0
 11 12  2  0
 12 13  1  0
 13 14  2  0
  8 15  1  1
 15 16  1  0
 16 17  1  0
 17 18  1  0
 18 19  1  0
 19 20  1  0
 20 21  2  0
  4 22  1  0
 22  2  1  0
 14  9  1  0
 20 15  1  0
M  END
>  <ref_pdb>  (854) 
A5036b

>  <subsites>  (854) 
1 - Active Site,5 - A3181/A/202/1

>  <HIPPO Compound ID>  (854) 
7455

>  <energy_score>  (854) 
-26.998528

>  <fragmenstein_mode>  (854) 
expansion

>  <scratch_subdir>  (854) 
/opt/xchem-fragalysis-2/maxwin/BulkDock/SCRATCH/512209/C3219-P551

>  <smiles>  (854) 
O=C1CC(NC(=O)[C@H](c2ccccc2)N2CCCCC2=O)C1

>  <alias>  (854) 
C3219-P551

>  <ref_mols>  (854) 
A0528b,A5036b

>  <inspiration_score>  (854) 
None

>  <tags>  (854) 
BulkDock Fragalysis export,fragmenstein_placed,openbind_a71ev2a_c1_knitwork_impure,openbind_a71ev2a_c1_scaffolds

>  <fragmenstein_outcome>  (854) 
acceptable

>  <fragmenstein_error>  (854) 


>  <distance_score>  (854) 
0.430856

>  <inchikey>  (854) 
BUOXSSFHPANDGR-UHFFFAOYSA-N

>  <name>  (854) 
C3219-P551

>  <HIPPO Pose ID>  (854) 
424959

>  <Energy>  (854) 
58.493325

>  <exports>  (854) 
['/opt/xchem-fragalysis-2/maxwin/BulkDock/OUTPUTS/openbind_a71ev2a_c1_knitwork_impure_165VXJF.sdf', '/opt/xchem-fragalysis-2/maxwin/BulkDock/OUTPUTS/openbind_a71ev2a_c1_knitwork_impure_1B07QS4.sdf', '/opt/xchem-fragalysis-2/maxwin/BulkDock/OUTPUTS/openbind_a71ev2a_c1_knitwork_impure_1B07X5R.sdf', '/opt/xchem-fragalysis-2/maxwin/openbind-hippo/a71ev2a/openbind_a71ev2a_c1_scaffold_products.sdf', '/opt/xchem-fragalysis-2/maxwin/openbind-hippo/a71ev2a/cycle_01/bulkdock/openbind_a71ev2a_c1_scaffold_products.sdf', '/opt/xchem-fragalysis-2/maxwin/openbind-hippo/a71ev2a/cycle_01/bulkdock/openbind_a71ev2a_c1_scaffolds.sdf']

>  <fragmenstein_runtime>  (854) 
17.125691

$$$$
C935-P213
     RDKit          3D

 22 25  0  0  0  0  0  0  0  0999 V2000
   21.2356   15.7460    1.5099 C   0  0  0  0  0  0  0  0  0  0  0  0
   22.3253   14.8303    2.1084 C   0  0  0  0  0  0  0  0  0  0  0  0
   23.4103   15.7400    2.6970 C   0  0  0  0  0  0  0  0  0  0  0  0
   21.6309   13.9960    3.1671 C   0  0  0  0  0  0  0  0  0  0  0  0
   22.8531   13.9061    1.0392 C   0  0  0  0  0  0  0  0  0  0  0  0
   22.2113   13.6475   -0.0867 N   0  0  0  0  0  0  0  0  0  0  0  0
   22.9665   12.7990   -0.8442 N   0  0  0  0  0  0  0  0  0  0  0  0
   24.0591   12.5328   -0.1708 C   0  0  0  0  0  0  0  0  0  0  0  0
   24.0097   13.1619    1.0470 N   0  0  0  0  0  0  0  0  0  0  0  0
   25.0866   13.1227    2.0163 C   0  0  0  0  0  0  0  0  0  0  0  0
   26.2006   12.1170    1.6734 C   0  0  2  0  0  0  0  0  0  0  0  0
   27.4630   12.4817    2.3736 C   0  0  0  0  0  0  0  0  0  0  0  0
   28.0728   13.6445    2.4309 N   0  0  0  0  0  0  0  0  0  0  0  0
   29.2376   13.3241    3.0918 C   0  0  0  0  0  0  0  0  0  0  0  0
   30.3680   14.3834    3.3929 C   0  0  2  0  0  0  0  0  0  0  0  0
   30.4985   14.7971    4.8684 C   0  0  0  0  0  0  0  0  0  0  0  0
   29.5615   15.9567    4.5058 C   0  0  0  0  0  0  0  0  0  0  0  0
   29.9539   15.7835    3.0895 N   0  0  0  0  0  0  0  0  0  0  0  0
   29.3519   12.0341    3.4304 N   0  0  0  0  0  0  0  0  0  0  0  0
   28.1647   11.4706    2.9592 O   0  0  0  0  0  0  0  0  0  0  0  0
   26.4684   12.0782    0.1585 C   0  0  0  0  0  0  0  0  0  0  0  0
   25.2072   11.7091   -0.6094 C   0  0  0  0  0  0  0  0  0  0  0  0
  1  2  1  0
  2  3  1  0
  2  4  1  0
  2  5  1  0
  5  6  2  0
  6  7  1  0
  7  8  2  0
  8  9  1  0
  9 10  1  0
 10 11  1  0
 11 12  1  1
 12 13  2  0
 13 14  1  0
 15 14  1  1
 15 16  1  0
 16 17  1  0
 17 18  1  0
 14 19  2  0
 19 20  1  0
 11 21  1  0
 21 22  1  0
  9  5  1  0
 20 12  1  0
 22  8  1  0
 18 15  1  0
M  END
>  <ref_pdb>  (855) 
A3548a

>  <subsites>  (855) 
1 - Active Site,6 - A0486/A/147/1

>  <HIPPO Compound ID>  (855) 
82790

>  <energy_score>  (855) 
-57.07811

>  <fragmenstein_mode>  (855) 
expansion

>  <scratch_subdir>  (855) 
/opt/xchem-fragalysis-2/maxwin/BulkDock/SCRATCH/512209/C935-P213

>  <smiles>  (855) 
CC(C)(C)c1nnc2n1C[C@H](c1nc([C@@H]3CCN3)no1)CC2

>  <alias>  (855) 
C935-P213

>  <ref_mols>  (855) 
A0239a,A3548a

>  <inspiration_score>  (855) 
None

>  <tags>  (855) 
BulkDock Fragalysis export,fragmenstein_placed,openbind_a71ev2a_c1_knitwork_impure,openbind_a71ev2a_c1_scaffolds

>  <fragmenstein_outcome>  (855) 
acceptable

>  <fragmenstein_error>  (855) 


>  <distance_score>  (855) 
0.958015

>  <inchikey>  (855) 
WGPOVBVNNQSGMO-UHFFFAOYSA-N

>  <name>  (855) 
C935-P213

>  <HIPPO Pose ID>  (855) 
425224

>  <Energy>  (855) 
36.447157

>  <exports>  (855) 
['/opt/xchem-fragalysis-2/maxwin/BulkDock/OUTPUTS/openbind_a71ev2a_c1_knitwork_impure_165VXJF.sdf', '/opt/xchem-fragalysis-2/maxwin/BulkDock/OUTPUTS/openbind_a71ev2a_c1_knitwork_impure_1B07QS4.sdf', '/opt/xchem-fragalysis-2/maxwin/BulkDock/OUTPUTS/openbind_a71ev2a_c1_knitwork_impure_1B07X5R.sdf', '/opt/xchem-fragalysis-2/maxwin/openbind-hippo/a71ev2a/openbind_a71ev2a_c1_scaffold_products.sdf', '/opt/xchem-fragalysis-2/maxwin/openbind-hippo/a71ev2a/cycle_01/bulkdock/openbind_a71ev2a_c1_scaffold_products.sdf', '/opt/xchem-fragalysis-2/maxwin/openbind-hippo/a71ev2a/cycle_01/bulkdock/openbind_a71ev2a_c1_scaffolds.sdf']

>  <fragmenstein_runtime>  (855) 
12.921808

$$$$
C1800-P191
     RDKit          3D

 16 18  0  0  0  0  0  0  0  0999 V2000
    8.3752   14.3437   24.5411 C   0  0  0  0  0  0  0  0  0  0  0  0
    7.7299   13.3033   25.0977 N   0  0  0  0  0  0  0  0  0  0  0  0
    8.0211   12.0696   24.6282 C   0  0  0  0  0  0  0  0  0  0  0  0
    9.0118   11.8347   23.6867 C   0  0  0  0  0  0  0  0  0  0  0  0
    9.6690   12.9492   23.1386 C   0  0  0  0  0  0  0  0  0  0  0  0
    9.3153   14.2404   23.5234 C   0  0  0  0  0  0  0  0  0  0  0  0
    9.8254   15.5233   22.9022 C   0  0  0  0  0  0  0  0  0  0  0  0
   10.9652   16.1400   23.7221 C   0  0  0  0  0  0  0  0  0  0  0  0
   12.3385   15.7149   23.2408 C   0  0  0  0  0  0  0  0  0  0  0  0
   12.4916   15.9975   21.8235 N   0  0  0  0  0  0  0  0  0  0  0  0
   11.5700   15.1806   21.0377 C   0  0  0  0  0  0  0  0  0  0  0  0
   10.1189   15.4883   21.3905 C   0  0  0  0  0  0  0  0  0  0  0  0
    9.4386   10.4448   23.3252 C   0  0  0  0  0  0  0  0  0  0  0  0
    8.4567    9.3314   23.6327 C   0  0  0  0  0  0  0  0  0  0  0  0
    7.4463    9.5739   24.7320 C   0  0  0  0  0  0  0  0  0  0  0  0
    7.1708   10.9873   25.1907 C   0  0  0  0  0  0  0  0  0  0  0  0
  1  2  2  0
  2  3  1  0
  3  4  2  0
  4  5  1  0
  5  6  2  0
  6  7  1  0
  7  8  1  0
  8  9  1  0
  9 10  1  0
 10 11  1  0
 11 12  1  0
  4 13  1  0
 13 14  1  0
 14 15  1  0
 15 16  1  0
  6  1  1  0
 12  7  1  0
 16  3  1  0
M  END
>  <ref_pdb>  (856) 
A3509b

>  <subsites>  (856) 
1 - Active Site

>  <HIPPO Compound ID>  (856) 
5666

>  <energy_score>  (856) 
-14.271449

>  <fragmenstein_mode>  (856) 
expansion

>  <scratch_subdir>  (856) 
/opt/xchem-fragalysis-2/maxwin/BulkDock/SCRATCH/512209/C1800-P191

>  <smiles>  (856) 
c1nc2c(cc1C1CCNCC1)CCCC2

>  <alias>  (856) 
C1800-P191

>  <ref_mols>  (856) 
A0556a,A3509b

>  <inspiration_score>  (856) 
None

>  <tags>  (856) 
BulkDock Fragalysis export,fragmenstein_placed,openbind_a71ev2a_c1_knitwork_impure,openbind_a71ev2a_c1_scaffolds

>  <fragmenstein_outcome>  (856) 
acceptable

>  <fragmenstein_error>  (856) 


>  <distance_score>  (856) 
0.811847

>  <inchikey>  (856) 
UMKQGKPJZAJAOK-UHFFFAOYSA-N

>  <name>  (856) 
C1800-P191

>  <HIPPO Pose ID>  (856) 
425258

>  <Energy>  (856) 
37.10717

>  <exports>  (856) 
['/opt/xchem-fragalysis-2/maxwin/BulkDock/OUTPUTS/openbind_a71ev2a_c1_knitwork_impure_165VXJF.sdf', '/opt/xchem-fragalysis-2/maxwin/BulkDock/OUTPUTS/openbind_a71ev2a_c1_knitwork_impure_1B07QS4.sdf', '/opt/xchem-fragalysis-2/maxwin/BulkDock/OUTPUTS/openbind_a71ev2a_c1_knitwork_impure_1B07X5R.sdf', '/opt/xchem-fragalysis-2/maxwin/openbind-hippo/a71ev2a/openbind_a71ev2a_c1_scaffold_products.sdf', '/opt/xchem-fragalysis-2/maxwin/openbind-hippo/a71ev2a/cycle_01/bulkdock/openbind_a71ev2a_c1_scaffold_products.sdf', '/opt/xchem-fragalysis-2/maxwin/openbind-hippo/a71ev2a/cycle_01/bulkdock/openbind_a71ev2a_c1_scaffolds.sdf']

>  <fragmenstein_runtime>  (856) 
49.180297

$$$$
C8160-P465
     RDKit          3D

 14 14  0  0  0  0  0  0  0  0999 V2000
    7.7895   10.6466   25.4810 C   0  0  0  0  0  0  0  0  0  0  0  0
    8.9761   10.8736   24.5536 C   0  0  0  0  0  0  0  0  0  0  0  0
    9.9736    9.7233   24.6219 C   0  0  0  0  0  0  0  0  0  0  0  0
    9.6662   12.2034   24.8382 C   0  0  0  0  0  0  0  0  0  0  0  0
    8.7225   13.3163   24.9953 N   0  0  0  0  0  0  0  0  0  0  0  0
    7.9655   13.9596   23.6492 S   0  0  0  0  0  0  0  0  0  0  0  0
    7.2977   12.8855   22.9508 O   0  0  0  0  0  0  0  0  0  0  0  0
    7.2459   15.1123   24.1302 O   0  0  0  0  0  0  0  0  0  0  0  0
    9.2898   14.4530   22.7603 N   0  0  0  0  0  0  0  0  0  0  0  0
   10.2861   15.2995   23.4517 C   0  0  0  0  0  0  0  0  0  0  0  0
   11.5716   15.2358   22.6408 C   0  0  0  0  0  0  0  0  0  0  0  0
   11.3361   15.8197   21.2568 C   0  0  0  0  0  0  0  0  0  0  0  0
   10.1794   15.1169   20.5565 C   0  0  0  0  0  0  0  0  0  0  0  0
    8.9351   15.0499   21.4380 C   0  0  0  0  0  0  0  0  0  0  0  0
  1  2  1  0
  2  3  1  0
  2  4  1  0
  4  5  1  0
  5  6  1  0
  6  7  2  0
  6  8  2  0
  6  9  1  0
  9 10  1  0
 10 11  1  0
 11 12  1  0
 12 13  1  0
 13 14  1  0
 14  9  1  0
M  END
>  <ref_pdb>  (857) 
A4786a

>  <subsites>  (857) 
1 - Active Site

>  <HIPPO Compound ID>  (857) 
1366

>  <energy_score>  (857) 
-48.109643

>  <fragmenstein_mode>  (857) 
expansion

>  <scratch_subdir>  (857) 
/opt/xchem-fragalysis-2/maxwin/BulkDock/SCRATCH/512209/C8160-P465

>  <smiles>  (857) 
CC(C)CNS(=O)(=O)N1CCCCC1

>  <alias>  (857) 
C8160-P465

>  <ref_mols>  (857) 
A4786a,A0719a

>  <inspiration_score>  (857) 
None

>  <tags>  (857) 
BulkDock Fragalysis export,fragmenstein_placed,openbind_a71ev2a_c1_knitwork_impure,openbind_a71ev2a_c1_scaffolds

>  <fragmenstein_outcome>  (857) 
acceptable

>  <fragmenstein_error>  (857) 


>  <distance_score>  (857) 
0.764406

>  <inchikey>  (857) 
AZDQXSSEMYQDTA-UHFFFAOYSA-N

>  <name>  (857) 
C8160-P465

>  <HIPPO Pose ID>  (857) 
425670

>  <Energy>  (857) 
-177.962336

>  <exports>  (857) 
['/opt/xchem-fragalysis-2/maxwin/BulkDock/OUTPUTS/openbind_a71ev2a_c1_knitwork_impure_165VXJF.sdf', '/opt/xchem-fragalysis-2/maxwin/BulkDock/OUTPUTS/openbind_a71ev2a_c1_knitwork_impure_1B07QS4.sdf', '/opt/xchem-fragalysis-2/maxwin/BulkDock/OUTPUTS/openbind_a71ev2a_c1_knitwork_impure_1B07X5R.sdf', '/opt/xchem-fragalysis-2/maxwin/openbind-hippo/a71ev2a/openbind_a71ev2a_c1_scaffold_products.sdf', '/opt/xchem-fragalysis-2/maxwin/openbind-hippo/a71ev2a/cycle_01/bulkdock/openbind_a71ev2a_c1_scaffold_products.sdf', '/opt/xchem-fragalysis-2/maxwin/openbind-hippo/a71ev2a/cycle_01/bulkdock/openbind_a71ev2a_c1_scaffolds.sdf']

>  <fragmenstein_runtime>  (857) 
3.363833

$$$$
C8169-P465
     RDKit          3D

 14 14  0  0  0  0  0  0  0  0999 V2000
    7.3724   12.9763   22.8686 O   0  0  0  0  0  0  0  0  0  0  0  0
    8.0362   14.0452   23.5793 S   0  0  0  0  0  0  0  0  0  0  0  0
    7.3184   15.1987   24.0607 O   0  0  0  0  0  0  0  0  0  0  0  0
    8.8059   13.3967   24.9223 N   0  0  0  0  0  0  0  0  0  0  0  0
    9.7582   12.2933   24.7500 C   0  0  0  0  0  0  0  0  0  0  0  0
    9.0947   10.9721   24.4178 C   0  0  0  0  0  0  0  0  0  0  0  0
    8.1167   10.5015   25.4723 C   0  0  0  0  0  0  0  0  0  0  0  0
    6.7078   11.5356   25.7688 Cl  0  0  0  0  0  0  0  0  0  0  0  0
    9.3600   14.5373   22.6976 N   0  0  0  0  0  0  0  0  0  0  0  0
   10.3658   15.3664   23.3910 C   0  0  0  0  0  0  0  0  0  0  0  0
   11.6558   15.2433   22.5971 C   0  0  0  0  0  0  0  0  0  0  0  0
   11.4487   15.8140   21.2039 C   0  0  0  0  0  0  0  0  0  0  0  0
   10.2755   15.1446   20.4977 C   0  0  0  0  0  0  0  0  0  0  0  0
    9.0240   15.1252   21.3706 C   0  0  0  0  0  0  0  0  0  0  0  0
  1  2  2  0
  2  3  2  0
  2  4  1  0
  4  5  1  0
  5  6  1  0
  6  7  1  0
  7  8  1  0
  2  9  1  0
  9 10  1  0
 10 11  1  0
 11 12  1  0
 12 13  1  0
 13 14  1  0
 14  9  1  0
M  END
>  <ref_pdb>  (858) 
A4786a

>  <subsites>  (858) 
1 - Active Site

>  <HIPPO Compound ID>  (858) 
14701

>  <energy_score>  (858) 
-66.420239

>  <fragmenstein_mode>  (858) 
expansion

>  <scratch_subdir>  (858) 
/opt/xchem-fragalysis-2/maxwin/BulkDock/SCRATCH/512209/C8169-P465

>  <smiles>  (858) 
O=S(=O)(NCCCCl)N1CCCCC1

>  <alias>  (858) 
C8169-P465

>  <ref_mols>  (858) 
A4786a,A0719a

>  <inspiration_score>  (858) 
None

>  <tags>  (858) 
BulkDock Fragalysis export,fragmenstein_placed,openbind_a71ev2a_c1_knitwork_impure,openbind_a71ev2a_c1_scaffolds

>  <fragmenstein_outcome>  (858) 
acceptable

>  <fragmenstein_error>  (858) 


>  <distance_score>  (858) 
0.788945

>  <inchikey>  (858) 
DZZJAVFDEJKWKN-UHFFFAOYSA-N

>  <name>  (858) 
C8169-P465

>  <HIPPO Pose ID>  (858) 
425675

>  <Energy>  (858) 
-182.179367

>  <exports>  (858) 
['/opt/xchem-fragalysis-2/maxwin/BulkDock/OUTPUTS/openbind_a71ev2a_c1_knitwork_impure_165VXJF.sdf', '/opt/xchem-fragalysis-2/maxwin/BulkDock/OUTPUTS/openbind_a71ev2a_c1_knitwork_impure_1B07QS4.sdf', '/opt/xchem-fragalysis-2/maxwin/BulkDock/OUTPUTS/openbind_a71ev2a_c1_knitwork_impure_1B07X5R.sdf', '/opt/xchem-fragalysis-2/maxwin/openbind-hippo/a71ev2a/openbind_a71ev2a_c1_scaffold_products.sdf', '/opt/xchem-fragalysis-2/maxwin/openbind-hippo/a71ev2a/cycle_01/bulkdock/openbind_a71ev2a_c1_scaffold_products.sdf', '/opt/xchem-fragalysis-2/maxwin/openbind-hippo/a71ev2a/cycle_01/bulkdock/openbind_a71ev2a_c1_scaffolds.sdf']

>  <fragmenstein_runtime>  (858) 
2.137949

$$$$
C8172-P465
     RDKit          3D

 15 15  0  0  0  0  0  0  0  0999 V2000
    7.3907   10.5820   25.7685 C   0  0  0  0  0  0  0  0  0  0  0  0
    8.3865   11.1677   25.4511 C   0  0  0  0  0  0  0  0  0  0  0  0
    9.3673   12.0862   24.8689 C   0  0  0  0  0  0  0  0  0  0  0  0
   10.6513   12.1935   25.6846 C   0  0  0  0  0  0  0  0  0  0  0  0
    9.7447   11.5470   23.5049 C   0  0  0  0  0  0  0  0  0  0  0  0
    8.7280   13.4082   24.9156 N   0  0  0  0  0  0  0  0  0  0  0  0
    7.9346   14.0639   23.6125 S   0  0  0  0  0  0  0  0  0  0  0  0
    7.1941   13.0276   22.9329 O   0  0  0  0  0  0  0  0  0  0  0  0
    7.2874   15.2465   24.1254 O   0  0  0  0  0  0  0  0  0  0  0  0
    9.2517   14.5219   22.6937 N   0  0  0  0  0  0  0  0  0  0  0  0
   10.2833   15.3391   23.3711 C   0  0  0  0  0  0  0  0  0  0  0  0
   11.5609   15.2328   22.5550 C   0  0  0  0  0  0  0  0  0  0  0  0
   11.3258   15.8078   21.1680 C   0  0  0  0  0  0  0  0  0  0  0  0
   10.1393   15.1381   20.4839 C   0  0  0  0  0  0  0  0  0  0  0  0
    8.9005   15.1192   21.3762 C   0  0  0  0  0  0  0  0  0  0  0  0
  1  2  3  0
  2  3  1  0
  3  4  1  0
  3  5  1  0
  3  6  1  0
  6  7  1  0
  7  8  2  0
  7  9  2  0
  7 10  1  0
 10 11  1  0
 11 12  1  0
 12 13  1  0
 13 14  1  0
 14 15  1  0
 15 10  1  0
M  END
>  <ref_pdb>  (859) 
A4786a

>  <subsites>  (859) 
1 - Active Site

>  <HIPPO Compound ID>  (859) 
5958

>  <energy_score>  (859) 
-45.697148

>  <fragmenstein_mode>  (859) 
expansion

>  <scratch_subdir>  (859) 
/opt/xchem-fragalysis-2/maxwin/BulkDock/SCRATCH/512209/C8172-P465

>  <smiles>  (859) 
C#CC(C)(C)NS(=O)(=O)N1CCCCC1

>  <alias>  (859) 
C8172-P465

>  <ref_mols>  (859) 
A4786a,A0719a

>  <inspiration_score>  (859) 
None

>  <tags>  (859) 
BulkDock Fragalysis export,fragmenstein_placed,openbind_a71ev2a_c1_knitwork_impure,openbind_a71ev2a_c1_scaffolds

>  <fragmenstein_outcome>  (859) 
acceptable

>  <fragmenstein_error>  (859) 


>  <distance_score>  (859) 
0.881782

>  <inchikey>  (859) 
JHIZANCYCGQYNV-UHFFFAOYSA-N

>  <name>  (859) 
C8172-P465

>  <HIPPO Pose ID>  (859) 
425678

>  <Energy>  (859) 
-188.9924

>  <exports>  (859) 
['/opt/xchem-fragalysis-2/maxwin/BulkDock/OUTPUTS/openbind_a71ev2a_c1_knitwork_impure_165VXJF.sdf', '/opt/xchem-fragalysis-2/maxwin/BulkDock/OUTPUTS/openbind_a71ev2a_c1_knitwork_impure_1B07QS4.sdf', '/opt/xchem-fragalysis-2/maxwin/BulkDock/OUTPUTS/openbind_a71ev2a_c1_knitwork_impure_1B07X5R.sdf', '/opt/xchem-fragalysis-2/maxwin/openbind-hippo/a71ev2a/openbind_a71ev2a_c1_scaffold_products.sdf', '/opt/xchem-fragalysis-2/maxwin/openbind-hippo/a71ev2a/cycle_01/bulkdock/openbind_a71ev2a_c1_scaffold_products.sdf', '/opt/xchem-fragalysis-2/maxwin/openbind-hippo/a71ev2a/cycle_01/bulkdock/openbind_a71ev2a_c1_scaffolds.sdf']

>  <fragmenstein_runtime>  (859) 
2.943384

$$$$
C8041-P161
     RDKit          3D

 19 19  0  0  0  0  0  0  0  0999 V2000
    9.3745   16.9571   21.6190 C   0  0  0  0  0  0  0  0  0  0  0  0
    9.5262   15.4887   21.2930 C   0  0  1  0  0  0  0  0  0  0  0  0
   10.8264   15.1809   20.5697 C   0  0  0  0  0  0  0  0  0  0  0  0
   10.8119   15.6726   19.1464 C   0  0  0  0  0  0  0  0  0  0  0  0
   11.7887   15.0778   18.4330 F   0  0  0  0  0  0  0  0  0  0  0  0
   10.9962   16.9974   19.1028 F   0  0  0  0  0  0  0  0  0  0  0  0
    9.6449   15.4407   18.5261 F   0  0  0  0  0  0  0  0  0  0  0  0
    9.4617   14.7091   22.5124 N   0  0  0  0  0  0  0  0  0  0  0  0
    8.4752   13.5787   22.9405 C   0  0  0  0  0  0  0  0  0  0  0  0
    7.5206   13.1616   22.4046 O   0  0  0  0  0  0  0  0  0  0  0  0
    9.0483   13.0159   24.2902 C   0  0  0  0  0  0  0  0  0  0  0  0
    9.2797   14.0440   25.1739 F   0  0  0  0  0  0  0  0  0  0  0  0
   10.3112   12.5099   24.0767 F   0  0  0  0  0  0  0  0  0  0  0  0
    8.1515   11.9575   24.8825 C   0  0  0  0  0  0  0  0  0  0  0  0
    8.3621   10.6208   24.5430 C   0  0  0  0  0  0  0  0  0  0  0  0
    7.5394    9.6679   25.0993 C   0  0  0  0  0  0  0  0  0  0  0  0
    6.5282    9.9453   25.9475 N   0  0  0  0  0  0  0  0  0  0  0  0
    6.3158   11.2462   26.2362 C   0  0  0  0  0  0  0  0  0  0  0  0
    7.0951   12.2778   25.7407 C   0  0  0  0  0  0  0  0  0  0  0  0
  2  1  1  1
  2  3  1  0
  3  4  1  0
  4  5  1  0
  4  6  1  0
  4  7  1  0
  2  8  1  0
  8  9  1  0
  9 10  2  0
  9 11  1  0
 11 12  1  0
 11 13  1  0
 11 14  1  0
 14 15  2  0
 15 16  1  0
 16 17  2  0
 17 18  1  0
 18 19  2  0
 19 14  1  0
M  END
>  <ref_pdb>  (860) 
A3229a

>  <subsites>  (860) 
1 - Active Site

>  <HIPPO Compound ID>  (860) 
41445

>  <energy_score>  (860) 
-15.369828

>  <fragmenstein_mode>  (860) 
expansion

>  <scratch_subdir>  (860) 
/opt/xchem-fragalysis-2/maxwin/BulkDock/SCRATCH/512209/C8041-P161

>  <smiles>  (860) 
C[C@@H](CC(F)(F)F)NC(=O)C(F)(F)c1ccncc1

>  <alias>  (860) 
C8041-P161

>  <ref_mols>  (860) 
A3229a,A1778a

>  <inspiration_score>  (860) 
None

>  <tags>  (860) 
BulkDock Fragalysis export,fragmenstein_placed,openbind_a71ev2a_c1_knitwork_impure,openbind_a71ev2a_c1_scaffolds

>  <fragmenstein_outcome>  (860) 
acceptable

>  <fragmenstein_error>  (860) 


>  <distance_score>  (860) 
0.623562

>  <inchikey>  (860) 
TTZBCFDUPZCDLF-UHFFFAOYSA-N

>  <name>  (860) 
C8041-P161

>  <HIPPO Pose ID>  (860) 
425720

>  <Energy>  (860) 
104.518657

>  <exports>  (860) 
['/opt/xchem-fragalysis-2/maxwin/BulkDock/OUTPUTS/openbind_a71ev2a_c1_knitwork_impure_165VXJF.sdf', '/opt/xchem-fragalysis-2/maxwin/BulkDock/OUTPUTS/openbind_a71ev2a_c1_knitwork_impure_1B07QS4.sdf', '/opt/xchem-fragalysis-2/maxwin/BulkDock/OUTPUTS/openbind_a71ev2a_c1_knitwork_impure_1B07X5R.sdf', '/opt/xchem-fragalysis-2/maxwin/openbind-hippo/a71ev2a/openbind_a71ev2a_c1_scaffold_products.sdf', '/opt/xchem-fragalysis-2/maxwin/openbind-hippo/a71ev2a/cycle_01/bulkdock/openbind_a71ev2a_c1_scaffold_products.sdf', '/opt/xchem-fragalysis-2/maxwin/openbind-hippo/a71ev2a/cycle_01/bulkdock/openbind_a71ev2a_c1_scaffolds.sdf']

>  <fragmenstein_runtime>  (860) 
4.64514

$$$$
C2382-P152
     RDKit          3D

 15 15  0  0  0  0  0  0  0  0999 V2000
    7.8641   10.9459   25.8453 C   0  0  0  0  0  0  0  0  0  0  0  0
    8.2425   10.5432   24.4343 C   0  0  0  0  0  0  0  0  0  0  0  0
    8.5941    9.0633   24.3922 C   0  0  0  0  0  0  0  0  0  0  0  0
    9.3562   11.3294   23.7461 C   0  0  0  0  0  0  0  0  0  0  0  0
    9.6371   12.7158   24.2607 C   0  0  0  0  0  0  0  0  0  0  0  0
   10.5171   12.8025   25.1275 O   0  0  0  0  0  0  0  0  0  0  0  0
    8.8165   13.9563   23.7451 C   0  0  0  0  0  0  0  0  0  0  0  0
    8.1218   14.5747   24.9670 C   0  0  0  0  0  0  0  0  0  0  0  0
    7.6693   13.5772   22.8044 C   0  0  0  0  0  0  0  0  0  0  0  0
    9.6612   15.0508   23.2059 N   0  0  0  0  0  0  0  0  0  0  0  0
   11.0120   15.2446   23.7249 C   0  0  0  0  0  0  0  0  0  0  0  0
   12.0666   14.5126   22.8920 C   0  0  0  0  0  0  0  0  0  0  0  0
   11.9691   14.8969   21.4179 C   0  0  0  0  0  0  0  0  0  0  0  0
   10.5432   14.7325   20.9095 C   0  0  0  0  0  0  0  0  0  0  0  0
    9.5619   15.4695   21.8092 C   0  0  0  0  0  0  0  0  0  0  0  0
  1  2  1  0
  2  3  1  0
  2  4  1  0
  4  5  1  0
  5  6  2  0
  5  7  1  0
  7  8  1  0
  7  9  1  0
  7 10  1  0
 10 11  1  0
 11 12  1  0
 12 13  1  0
 13 14  1  0
 14 15  1  0
 15 10  1  0
M  END
>  <ref_pdb>  (861) 
A3201a

>  <subsites>  (861) 
1 - Active Site

>  <HIPPO Compound ID>  (861) 
9826

>  <energy_score>  (861) 
-35.587587

>  <fragmenstein_mode>  (861) 
expansion

>  <scratch_subdir>  (861) 
/opt/xchem-fragalysis-2/maxwin/BulkDock/SCRATCH/511196/C2382-P152

>  <smiles>  (861) 
CC(C)CC(=O)C(C)(C)N1CCCCC1

>  <alias>  (861) 
C2382-P152

>  <ref_mols>  (861) 
A3201a,A1775a

>  <inspiration_score>  (861) 
None

>  <tags>  (861) 
BulkDock Fragalysis export,fragmenstein_placed,openbind_a71ev2a_c1_knitwork_impure,openbind_a71ev2a_c1_scaffolds

>  <fragmenstein_outcome>  (861) 
acceptable

>  <fragmenstein_error>  (861) 


>  <distance_score>  (861) 
0.966979

>  <inchikey>  (861) 
TVKHXLKOZGSFPX-UHFFFAOYSA-N

>  <name>  (861) 
C2382-P152

>  <HIPPO Pose ID>  (861) 
426593

>  <Energy>  (861) 
68.092465

>  <exports>  (861) 
['/opt/xchem-fragalysis-2/maxwin/BulkDock/OUTPUTS/openbind_a71ev2a_c1_knitwork_impure_165VXJF.sdf', '/opt/xchem-fragalysis-2/maxwin/BulkDock/OUTPUTS/openbind_a71ev2a_c1_knitwork_impure_1B07QS4.sdf', '/opt/xchem-fragalysis-2/maxwin/BulkDock/OUTPUTS/openbind_a71ev2a_c1_knitwork_impure_1B07X5R.sdf', '/opt/xchem-fragalysis-2/maxwin/openbind-hippo/a71ev2a/openbind_a71ev2a_c1_scaffold_products.sdf', '/opt/xchem-fragalysis-2/maxwin/openbind-hippo/a71ev2a/cycle_01/bulkdock/openbind_a71ev2a_c1_scaffold_products.sdf', '/opt/xchem-fragalysis-2/maxwin/openbind-hippo/a71ev2a/cycle_01/bulkdock/openbind_a71ev2a_c1_scaffolds.sdf']

>  <fragmenstein_runtime>  (861) 
6.619204

$$$$
C2384-P152
     RDKit          3D

 15 15  0  0  0  0  0  0  0  0999 V2000
   12.0680   15.0929   22.2528 C   0  0  0  0  0  0  0  0  0  0  0  0
   10.7871   15.6553   22.8654 C   0  0  0  0  0  0  0  0  0  0  0  0
    9.4763   14.9753   22.4591 C   0  0  1  0  0  0  0  0  0  0  0  0
    9.4448   14.7868   20.9427 C   0  0  0  0  0  0  0  0  0  0  0  0
    8.9712   13.6803   23.1199 C   0  0  0  0  0  0  0  0  0  0  0  0
    7.9754   13.1339   22.6171 O   0  0  0  0  0  0  0  0  0  0  0  0
    9.5196   13.1575   24.4610 C   0  0  0  0  0  0  0  0  0  0  0  0
   11.0569   13.2466   24.5799 C   0  0  0  0  0  0  0  0  0  0  0  0
    8.8524   14.0282   25.5352 C   0  0  0  0  0  0  0  0  0  0  0  0
    9.2211   11.6414   24.6402 C   0  0  2  0  0  0  0  0  0  0  0  0
    9.7033   10.8478   23.4233 C   0  0  0  0  0  0  0  0  0  0  0  0
    9.8891    9.3952   23.7655 C   0  0  0  0  0  0  0  0  0  0  0  0
    8.6409    8.8646   24.4336 C   0  0  0  0  0  0  0  0  0  0  0  0
    7.9689    9.7153   25.4219 N   0  0  0  0  0  0  0  0  0  0  0  0
    7.8420   11.1231   25.0051 C   0  0  0  0  0  0  0  0  0  0  0  0
  1  2  1  0
  2  3  1  0
  3  4  1  6
  3  5  1  0
  5  6  2  0
  5  7  1  0
  7  8  1  0
  7  9  1  0
 10  7  1  6
 10 11  1  0
 11 12  1  0
 12 13  1  0
 13 14  1  0
 14 15  1  0
 15 10  1  0
M  END
>  <ref_pdb>  (862) 
A3201a

>  <subsites>  (862) 
1 - Active Site

>  <HIPPO Compound ID>  (862) 
6036

>  <energy_score>  (862) 
-35.49036

>  <fragmenstein_mode>  (862) 
expansion

>  <scratch_subdir>  (862) 
/opt/xchem-fragalysis-2/maxwin/BulkDock/SCRATCH/511196/C2384-P152

>  <smiles>  (862) 
CC[C@@H](C)C(=O)C(C)(C)[C@@H]1CCCNC1

>  <alias>  (862) 
C2384-P152

>  <ref_mols>  (862) 
A3201a,A1775a

>  <inspiration_score>  (862) 
None

>  <tags>  (862) 
BulkDock Fragalysis export,fragmenstein_placed,openbind_a71ev2a_c1_knitwork_impure,openbind_a71ev2a_c1_scaffolds

>  <fragmenstein_outcome>  (862) 
acceptable

>  <fragmenstein_error>  (862) 


>  <distance_score>  (862) 
0.935065

>  <inchikey>  (862) 
JAFBAXAMVALFBL-UHFFFAOYSA-N

>  <name>  (862) 
C2384-P152

>  <HIPPO Pose ID>  (862) 
426594

>  <Energy>  (862) 
47.664782

>  <exports>  (862) 
['/opt/xchem-fragalysis-2/maxwin/BulkDock/OUTPUTS/openbind_a71ev2a_c1_knitwork_impure_165VXJF.sdf', '/opt/xchem-fragalysis-2/maxwin/BulkDock/OUTPUTS/openbind_a71ev2a_c1_knitwork_impure_1B07QS4.sdf', '/opt/xchem-fragalysis-2/maxwin/BulkDock/OUTPUTS/openbind_a71ev2a_c1_knitwork_impure_1B07X5R.sdf', '/opt/xchem-fragalysis-2/maxwin/openbind-hippo/a71ev2a/openbind_a71ev2a_c1_scaffold_products.sdf', '/opt/xchem-fragalysis-2/maxwin/openbind-hippo/a71ev2a/cycle_01/bulkdock/openbind_a71ev2a_c1_scaffold_products.sdf', '/opt/xchem-fragalysis-2/maxwin/openbind-hippo/a71ev2a/cycle_01/bulkdock/openbind_a71ev2a_c1_scaffolds.sdf']

>  <fragmenstein_runtime>  (862) 
2.267487

$$$$
C21693-P248
     RDKit          3D

 14 14  0  0  0  0  0  0  0  0999 V2000
    7.3551   14.6219   26.4514 C   0  0  0  0  0  0  0  0  0  0  0  0
    7.1105   14.0758   25.0351 C   0  0  1  0  0  0  0  0  0  0  0  0
    7.4764   15.1697   24.0433 C   0  0  0  0  0  0  0  0  0  0  0  0
    7.1565   14.8459   22.3178 S   0  0  0  0  0  0  0  0  0  0  0  0
    5.8100   15.7903   22.0342 N   0  0  0  0  0  0  0  0  0  0  0  0
    8.2369   15.4444   21.5707 O   0  0  0  0  0  0  0  0  0  0  0  0
    6.7631   13.4788   22.0691 O   0  0  0  0  0  0  0  0  0  0  0  0
    7.7750   12.7731   24.8739 N   0  0  0  0  0  0  0  0  0  0  0  0
    9.1122   12.6571   24.3131 C   0  0  0  0  0  0  0  0  0  0  0  0
    9.1447   11.4698   23.3894 C   0  0  0  0  0  0  0  0  0  0  0  0
    8.6967   10.2050   24.0751 C   0  0  0  0  0  0  0  0  0  0  0  0
    7.7304   10.4520   25.1200 N   0  0  0  0  0  0  0  0  0  0  0  0
    7.1822   11.6564   25.4382 C   0  0  0  0  0  0  0  0  0  0  0  0
    6.2258   11.6953   26.2075 O   0  0  0  0  0  0  0  0  0  0  0  0
  2  1  1  1
  2  3  1  0
  3  4  1  0
  4  5  1  0
  4  6  2  0
  4  7  2  0
  2  8  1  0
  8  9  1  0
  9 10  1  0
 10 11  1  0
 11 12  1  0
 12 13  1  0
 13 14  2  0
 13  8  1  0
M  END
>  <ref_pdb>  (863) 
A3956a

>  <subsites>  (863) 
1 - Active Site

>  <HIPPO Compound ID>  (863) 
1349

>  <energy_score>  (863) 
-44.127023

>  <fragmenstein_mode>  (863) 
expansion

>  <scratch_subdir>  (863) 
/opt/xchem-fragalysis-2/maxwin/BulkDock/SCRATCH/511196/C21693-P248

>  <smiles>  (863) 
C[C@@H](CS(N)(=O)=O)N1CCCNC1=O

>  <alias>  (863) 
C21693-P248

>  <ref_mols>  (863) 
A3956a,A0719a

>  <inspiration_score>  (863) 
None

>  <tags>  (863) 
BulkDock Fragalysis export,fragmenstein_placed,openbind_a71ev2a_c1_knitwork_impure,openbind_a71ev2a_c1_scaffolds

>  <fragmenstein_outcome>  (863) 
acceptable

>  <fragmenstein_error>  (863) 


>  <distance_score>  (863) 
0.62422

>  <inchikey>  (863) 
FGJOWJHHEOWVGK-UHFFFAOYSA-N

>  <name>  (863) 
C21693-P248

>  <HIPPO Pose ID>  (863) 
426953

>  <Energy>  (863) 
-167.00787

>  <exports>  (863) 
['/opt/xchem-fragalysis-2/maxwin/BulkDock/OUTPUTS/openbind_a71ev2a_c1_knitwork_impure_165VXJF.sdf', '/opt/xchem-fragalysis-2/maxwin/BulkDock/OUTPUTS/openbind_a71ev2a_c1_knitwork_impure_1B07QS4.sdf', '/opt/xchem-fragalysis-2/maxwin/BulkDock/OUTPUTS/openbind_a71ev2a_c1_knitwork_impure_1B07X5R.sdf', '/opt/xchem-fragalysis-2/maxwin/openbind-hippo/a71ev2a/openbind_a71ev2a_c1_scaffold_products.sdf', '/opt/xchem-fragalysis-2/maxwin/openbind-hippo/a71ev2a/cycle_01/bulkdock/openbind_a71ev2a_c1_scaffold_products.sdf', '/opt/xchem-fragalysis-2/maxwin/openbind-hippo/a71ev2a/cycle_01/bulkdock/openbind_a71ev2a_c1_scaffolds.sdf']

>  <fragmenstein_runtime>  (863) 
1.278711

$$$$
C956-P337
     RDKit          3D

 18 20  0  0  0  0  0  0  0  0999 V2000
   22.4249   14.4254    2.9040 C   0  0  0  0  0  0  0  0  0  0  0  0
   22.8674   13.8162    1.6331 C   0  0  0  0  0  0  0  0  0  0  0  0
   22.1971   13.7948    0.4976 N   0  0  0  0  0  0  0  0  0  0  0  0
   22.9703   13.1616   -0.4488 N   0  0  0  0  0  0  0  0  0  0  0  0
   24.1007   12.8086    0.1285 C   0  0  0  0  0  0  0  0  0  0  0  0
   24.0704   13.1967    1.4414 N   0  0  0  0  0  0  0  0  0  0  0  0
   25.1815   13.0792    2.3605 C   0  0  0  0  0  0  0  0  0  0  0  0
   26.2797   12.1472    1.8443 C   0  0  0  0  0  0  0  0  0  0  0  0
   26.5455   12.3778    0.3548 C   0  0  0  0  0  0  0  0  0  0  0  0
   25.2781   12.1184   -0.4694 C   0  0  2  0  0  0  0  0  0  0  0  0
   25.4212   12.5587   -1.8324 N   0  0  0  0  0  0  0  0  0  0  0  0
   26.5017   12.2256   -2.8869 C   0  0  0  0  0  0  0  0  0  0  0  0
   27.4834   11.6053   -2.7919 O   0  0  0  0  0  0  0  0  0  0  0  0
   26.0497   12.8995   -4.1769 C   0  0  0  0  0  0  0  0  0  0  0  0
   26.9883   12.6481   -5.3560 C   0  0  0  0  0  0  0  0  0  0  0  0
   26.4508   13.1565   -6.7238 C   0  0  0  0  0  0  0  0  0  0  0  0
   27.3369   11.8035   -7.5628 S   0  0  0  0  0  0  0  0  0  0  0  0
   27.0675   11.1787   -5.8679 C   0  0  0  0  0  0  0  0  0  0  0  0
  1  2  1  0
  2  3  2  0
  3  4  1  0
  4  5  2  0
  5  6  1  0
  6  7  1  0
  7  8  1  0
  8  9  1  0
  9 10  1  0
 10 11  1  6
 11 12  1  0
 12 13  2  0
 12 14  1  0
 14 15  1  0
 15 16  1  0
 16 17  1  0
 17 18  1  0
  6  2  1  0
 18 15  1  0
 10  5  1  0
M  END
>  <ref_pdb>  (864) 
A4214b

>  <subsites>  (864) 
1 - Active Site,6 - A0486/A/147/1

>  <HIPPO Compound ID>  (864) 
2631

>  <energy_score>  (864) 
-13.232875

>  <fragmenstein_mode>  (864) 
expansion

>  <scratch_subdir>  (864) 
/opt/xchem-fragalysis-2/maxwin/BulkDock/SCRATCH/511196/C956-P337

>  <smiles>  (864) 
Cc1nnc2n1CCC[C@@H]2NC(=O)CC1CSC1

>  <alias>  (864) 
C956-P337

>  <ref_mols>  (864) 
A4214b,A0239a

>  <inspiration_score>  (864) 
None

>  <tags>  (864) 
BulkDock Fragalysis export,fragmenstein_placed,openbind_a71ev2a_c1_knitwork_impure,openbind_a71ev2a_c1_scaffolds

>  <fragmenstein_outcome>  (864) 
acceptable

>  <fragmenstein_error>  (864) 


>  <distance_score>  (864) 
0.462014

>  <inchikey>  (864) 
MDGFSWJANWKXMW-UHFFFAOYSA-N

>  <name>  (864) 
C956-P337

>  <HIPPO Pose ID>  (864) 
427001

>  <Energy>  (864) 
-12.358895

>  <exports>  (864) 
['/opt/xchem-fragalysis-2/maxwin/BulkDock/OUTPUTS/openbind_a71ev2a_c1_knitwork_impure_165VXJF.sdf', '/opt/xchem-fragalysis-2/maxwin/BulkDock/OUTPUTS/openbind_a71ev2a_c1_knitwork_impure_1B07QS4.sdf', '/opt/xchem-fragalysis-2/maxwin/BulkDock/OUTPUTS/openbind_a71ev2a_c1_knitwork_impure_1B07X5R.sdf', '/opt/xchem-fragalysis-2/maxwin/openbind-hippo/a71ev2a/openbind_a71ev2a_c1_scaffold_products.sdf', '/opt/xchem-fragalysis-2/maxwin/openbind-hippo/a71ev2a/cycle_01/bulkdock/openbind_a71ev2a_c1_scaffold_products.sdf', '/opt/xchem-fragalysis-2/maxwin/openbind-hippo/a71ev2a/cycle_01/bulkdock/openbind_a71ev2a_c1_scaffolds.sdf']

>  <fragmenstein_runtime>  (864) 
4.349224

$$$$
C1002-P337
     RDKit          3D

 20 22  0  0  0  0  0  0  0  0999 V2000
   30.5365    8.4717    1.0176 C   0  0  0  0  0  0  0  0  0  0  0  0
   30.2971    9.5962    1.3663 C   0  0  0  0  0  0  0  0  0  0  0  0
   30.0107   10.9731    1.7955 C   0  0  2  0  0  0  0  0  0  0  0  0
   28.6330   11.2751    1.5028 N   0  0  0  0  0  0  0  0  0  0  0  0
   27.6848   12.3395    2.1117 C   0  0  0  0  0  0  0  0  0  0  0  0
   27.8961   13.1839    2.8877 O   0  0  0  0  0  0  0  0  0  0  0  0
   26.3140   12.1470    1.4481 C   0  0  2  0  0  0  0  0  0  0  0  0
   26.3674   12.4640   -0.0586 C   0  0  0  0  0  0  0  0  0  0  0  0
   25.0150   12.1944   -0.7174 C   0  0  0  0  0  0  0  0  0  0  0  0
   23.9201   12.8342    0.0443 C   0  0  0  0  0  0  0  0  0  0  0  0
   22.7222   13.1684   -0.3781 N   0  0  0  0  0  0  0  0  0  0  0  0
   22.0651   13.7721    0.6689 N   0  0  0  0  0  0  0  0  0  0  0  0
   22.8732   13.7862    1.7111 C   0  0  0  0  0  0  0  0  0  0  0  0
   22.5832   14.3706    3.0349 C   0  0  0  0  0  0  0  0  0  0  0  0
   24.0474   13.1807    1.3617 N   0  0  0  0  0  0  0  0  0  0  0  0
   25.2645   13.0434    2.1365 C   0  0  0  0  0  0  0  0  0  0  0  0
   30.8470   11.9722    1.0030 C   0  0  0  0  0  0  0  0  0  0  0  0
   30.8752   13.4464    1.5036 C   0  0  0  0  0  0  0  0  0  0  0  0
   32.3553   13.4882    1.0759 C   0  0  0  0  0  0  0  0  0  0  0  0
   32.3794   11.9605    1.2795 C   0  0  0  0  0  0  0  0  0  0  0  0
  1  2  3  0
  3  2  1  6
  3  4  1  0
  4  5  1  0
  5  6  2  0
  7  5  1  1
  7  8  1  0
  8  9  1  0
  9 10  1  0
 10 11  2  0
 11 12  1  0
 12 13  2  0
 13 14  1  0
 13 15  1  0
 15 16  1  0
  3 17  1  0
 17 18  1  0
 18 19  1  0
 19 20  1  0
 16  7  1  0
 20 17  1  0
 15 10  1  0
M  END
>  <ref_pdb>  (865) 
A4214b

>  <subsites>  (865) 
1 - Active Site,6 - A0486/A/147/1

>  <HIPPO Compound ID>  (865) 
9840

>  <energy_score>  (865) 
-18.047747

>  <fragmenstein_mode>  (865) 
expansion

>  <scratch_subdir>  (865) 
/opt/xchem-fragalysis-2/maxwin/BulkDock/SCRATCH/511196/C1002-P337

>  <smiles>  (865) 
C#C[C@H](NC(=O)[C@@H]1CCc2nnc(C)n2C1)C1CCC1

>  <alias>  (865) 
C1002-P337

>  <ref_mols>  (865) 
A4214b,A0239a

>  <inspiration_score>  (865) 
None

>  <tags>  (865) 
BulkDock Fragalysis export,fragmenstein_placed,openbind_a71ev2a_c1_knitwork_impure,openbind_a71ev2a_c1_scaffolds

>  <fragmenstein_outcome>  (865) 
acceptable

>  <fragmenstein_error>  (865) 


>  <distance_score>  (865) 
0.531046

>  <inchikey>  (865) 
BMFYZDOZZIDDSD-UHFFFAOYSA-N

>  <name>  (865) 
C1002-P337

>  <HIPPO Pose ID>  (865) 
427005

>  <Energy>  (865) 
-15.550777

>  <exports>  (865) 
['/opt/xchem-fragalysis-2/maxwin/BulkDock/OUTPUTS/openbind_a71ev2a_c1_knitwork_impure_165VXJF.sdf', '/opt/xchem-fragalysis-2/maxwin/BulkDock/OUTPUTS/openbind_a71ev2a_c1_knitwork_impure_1B07QS4.sdf', '/opt/xchem-fragalysis-2/maxwin/BulkDock/OUTPUTS/openbind_a71ev2a_c1_knitwork_impure_1B07X5R.sdf', '/opt/xchem-fragalysis-2/maxwin/openbind-hippo/a71ev2a/openbind_a71ev2a_c1_scaffold_products.sdf', '/opt/xchem-fragalysis-2/maxwin/openbind-hippo/a71ev2a/cycle_01/bulkdock/openbind_a71ev2a_c1_scaffold_products.sdf', '/opt/xchem-fragalysis-2/maxwin/openbind-hippo/a71ev2a/cycle_01/bulkdock/openbind_a71ev2a_c1_scaffolds.sdf']

>  <fragmenstein_runtime>  (865) 
19.324053

$$$$
C4702-P152
     RDKit          3D

 11 11  0  0  0  0  0  0  0  0999 V2000
   10.5979   15.2656   19.8824 C   0  0  0  0  0  0  0  0  0  0  0  0
   10.6329   15.1348   21.2185 C   0  0  0  0  0  0  0  0  0  0  0  0
   11.8892   15.4192   21.9915 C   0  0  0  0  0  0  0  0  0  0  0  0
   12.1602   14.2926   22.9775 C   0  0  0  0  0  0  0  0  0  0  0  0
   10.9307   13.9923   23.8320 C   0  0  0  0  0  0  0  0  0  0  0  0
    9.7911   13.6245   22.9818 N   0  0  0  0  0  0  0  0  0  0  0  0
    8.6220   13.1107   23.7282 C   0  0  2  0  0  0  0  0  0  0  0  0
    8.2269   13.9116   24.9626 C   0  0  0  0  0  0  0  0  0  0  0  0
    8.8859   11.6539   24.1289 C   0  0  0  0  0  0  0  0  0  0  0  0
    8.6120   11.1728   25.2298 O   0  0  0  0  0  0  0  0  0  0  0  0
    9.4461   14.7242   22.0606 C   0  0  0  0  0  0  0  0  0  0  0  0
  1  2  2  0
  2  3  1  0
  3  4  1  0
  4  5  1  0
  5  6  1  0
  6  7  1  0
  7  8  1  1
  7  9  1  0
  9 10  2  0
  6 11  1  0
 11  2  1  0
M  END
>  <ref_pdb>  (866) 
A3201a

>  <subsites>  (866) 
1 - Active Site

>  <HIPPO Compound ID>  (866) 
33915

>  <energy_score>  (866) 
-36.280328

>  <fragmenstein_mode>  (866) 
expansion

>  <scratch_subdir>  (866) 
/opt/xchem-fragalysis-2/maxwin/BulkDock/SCRATCH/511196/C4702-P152

>  <smiles>  (866) 
C=C1CCCN([C@H](C)C=O)C1

>  <alias>  (866) 
C4702-P152

>  <ref_mols>  (866) 
A3201a,A1775a

>  <inspiration_score>  (866) 
None

>  <tags>  (866) 
BulkDock Fragalysis export,fragmenstein_placed,openbind_a71ev2a_c1_knitwork_impure,openbind_a71ev2a_c1_scaffolds

>  <fragmenstein_outcome>  (866) 
acceptable

>  <fragmenstein_error>  (866) 


>  <distance_score>  (866) 
0.91639

>  <inchikey>  (866) 
ZJMRYSAATNYSCO-UHFFFAOYSA-N

>  <name>  (866) 
C4702-P152

>  <HIPPO Pose ID>  (866) 
427031

>  <Energy>  (866) 
27.743347

>  <exports>  (866) 
['/opt/xchem-fragalysis-2/maxwin/BulkDock/OUTPUTS/openbind_a71ev2a_c1_knitwork_impure_165VXJF.sdf', '/opt/xchem-fragalysis-2/maxwin/BulkDock/OUTPUTS/openbind_a71ev2a_c1_knitwork_impure_1B07QS4.sdf', '/opt/xchem-fragalysis-2/maxwin/BulkDock/OUTPUTS/openbind_a71ev2a_c1_knitwork_impure_1B07X5R.sdf', '/opt/xchem-fragalysis-2/maxwin/openbind-hippo/a71ev2a/openbind_a71ev2a_c1_scaffold_products.sdf', '/opt/xchem-fragalysis-2/maxwin/openbind-hippo/a71ev2a/cycle_01/bulkdock/openbind_a71ev2a_c1_scaffold_products.sdf', '/opt/xchem-fragalysis-2/maxwin/openbind-hippo/a71ev2a/cycle_01/bulkdock/openbind_a71ev2a_c1_scaffolds.sdf']

>  <fragmenstein_runtime>  (866) 
2.240046

$$$$
C22606-P136
     RDKit          3D

 26 30  0  0  0  0  0  0  0  0999 V2000
   20.0977   13.1829   28.5954 C   0  0  0  0  0  0  0  0  0  0  0  0
   20.5854   13.8567   27.4898 C   0  0  0  0  0  0  0  0  0  0  0  0
   21.9114   14.3067   27.5113 C   0  0  0  0  0  0  0  0  0  0  0  0
   22.4258   14.9969   26.3747 N   0  0  0  0  0  0  0  0  0  0  0  0
   21.6406   15.1348   25.2682 N   0  0  0  0  0  0  0  0  0  0  0  0
   22.3965   15.7973   24.3942 C   0  0  0  0  0  0  0  0  0  0  0  0
   23.6576   16.1281   24.9056 C   0  0  0  0  0  0  0  0  0  0  0  0
   24.7958   16.8193   24.4705 C   0  0  0  0  0  0  0  0  0  0  0  0
   24.9290   17.4219   23.2095 N   0  0  0  0  0  0  0  0  0  0  0  0
   24.2499   18.7205   23.1894 C   0  0  0  0  0  0  0  0  0  0  0  0
   24.9484   19.7365   22.3075 C   0  0  0  0  0  0  0  0  0  0  0  0
   24.4571   21.0682   22.3003 C   0  0  0  0  0  0  0  0  0  0  0  0
   25.0633   22.0660   21.5294 C   0  0  0  0  0  0  0  0  0  0  0  0
   26.1524   21.7092   20.7678 C   0  0  0  0  0  0  0  0  0  0  0  0
   26.6409   20.4248   20.7650 C   0  0  0  0  0  0  0  0  0  0  0  0
   26.0650   19.4209   21.5167 C   0  0  0  0  0  0  0  0  0  0  0  0
   27.7296   20.2882   19.9612 O   0  0  0  0  0  0  0  0  0  0  0  0
   27.7930   21.6010   19.3701 C   0  0  0  0  0  0  0  0  0  0  0  0
   26.8626   22.5372   19.9556 O   0  0  0  0  0  0  0  0  0  0  0  0
   25.8380   16.9186   25.3256 N   0  0  0  0  0  0  0  0  0  0  0  0
   25.7348   16.3625   26.5443 C   0  0  0  0  0  0  0  0  0  0  0  0
   24.6957   15.6896   27.0596 N   0  0  0  0  0  0  0  0  0  0  0  0
   23.6684   15.5994   26.1885 C   0  0  0  0  0  0  0  0  0  0  0  0
   22.6843   14.0613   28.6461 C   0  0  0  0  0  0  0  0  0  0  0  0
   22.1000   13.3761   29.7011 C   0  0  0  0  0  0  0  0  0  0  0  0
   20.8258   12.9299   29.7019 N   0  0  0  0  0  0  0  0  0  0  0  0
  1  2  2  0
  2  3  1  0
  3  4  1  0
  4  5  1  0
  5  6  2  0
  6  7  1  0
  7  8  2  0
  8  9  1  0
  9 10  1  0
 10 11  1  0
 11 12  2  0
 12 13  1  0
 13 14  2  0
 14 15  1  0
 15 16  2  0
 15 17  1  0
 17 18  1  0
 18 19  1  0
  8 20  1  0
 20 21  2  0
 21 22  1  0
 22 23  2  0
  3 24  2  0
 24 25  1  0
 25 26  2  0
 26  1  1  0
 23  4  1  0
 23  7  1  0
 16 11  1  0
 19 14  1  0
M  END
>  <ref_pdb>  (867) 
A2846a

>  <subsites>  (867) 
1 - Active Site,5 - A3181/A/202/1

>  <HIPPO Compound ID>  (867) 
1359

>  <energy_score>  (867) 
-50.094481

>  <fragmenstein_mode>  (867) 
expansion

>  <scratch_subdir>  (867) 
/opt/xchem-fragalysis-2/maxwin/BulkDock/SCRATCH/511196/C22606-P136

>  <smiles>  (867) 
c1cc(-n2ncc3c(NCc4ccc5c(c4)OCO5)ncnc32)ccn1

>  <alias>  (867) 
C22606-P136

>  <ref_mols>  (867) 
A2846a,A0351b

>  <inspiration_score>  (867) 
None

>  <tags>  (867) 
BulkDock Fragalysis export,fragmenstein_placed,openbind_a71ev2a_c1_knitwork_impure,openbind_a71ev2a_c1_scaffolds

>  <fragmenstein_outcome>  (867) 
acceptable

>  <fragmenstein_error>  (867) 


>  <distance_score>  (867) 
0.495842

>  <inchikey>  (867) 
REBHPYHCNJHMBG-UHFFFAOYSA-N

>  <name>  (867) 
C22606-P136

>  <HIPPO Pose ID>  (867) 
427110

>  <Energy>  (867) 
46.86604

>  <exports>  (867) 
['/opt/xchem-fragalysis-2/maxwin/BulkDock/OUTPUTS/openbind_a71ev2a_c1_knitwork_impure_165VXJF.sdf', '/opt/xchem-fragalysis-2/maxwin/BulkDock/OUTPUTS/openbind_a71ev2a_c1_knitwork_impure_1B07QS4.sdf', '/opt/xchem-fragalysis-2/maxwin/BulkDock/OUTPUTS/openbind_a71ev2a_c1_knitwork_impure_1B07X5R.sdf', '/opt/xchem-fragalysis-2/maxwin/openbind-hippo/a71ev2a/openbind_a71ev2a_c1_scaffold_products.sdf', '/opt/xchem-fragalysis-2/maxwin/openbind-hippo/a71ev2a/cycle_01/bulkdock/openbind_a71ev2a_c1_scaffold_products.sdf', '/opt/xchem-fragalysis-2/maxwin/openbind-hippo/a71ev2a/cycle_01/bulkdock/openbind_a71ev2a_c1_scaffolds.sdf']

>  <fragmenstein_runtime>  (867) 
8.044303

$$$$
C727-P93
     RDKit          3D

 12 13  0  0  0  0  0  0  0  0999 V2000
    7.1427   12.0087   25.3424 C   0  0  0  0  0  0  0  0  0  0  0  0
    7.7142   12.9856   24.5411 C   0  0  0  0  0  0  0  0  0  0  0  0
    8.8541   12.6682   23.8128 C   0  0  0  0  0  0  0  0  0  0  0  0
    9.5278   13.5737   23.0031 N   0  0  0  0  0  0  0  0  0  0  0  0
   10.7660   14.0833   23.5979 C   0  0  0  0  0  0  0  0  0  0  0  0
   11.6979   14.5006   22.4730 C   0  0  0  0  0  0  0  0  0  0  0  0
   11.0489   15.5294   21.5619 C   0  0  0  0  0  0  0  0  0  0  0  0
    9.6863   15.0517   21.0738 C   0  0  0  0  0  0  0  0  0  0  0  0
    8.7914   14.5771   22.2228 C   0  0  0  0  0  0  0  0  0  0  0  0
    9.3477   11.3630   23.9090 C   0  0  0  0  0  0  0  0  0  0  0  0
    8.7087   10.4509   24.7252 C   0  0  0  0  0  0  0  0  0  0  0  0
    7.6206   10.7506   25.4628 N   0  0  0  0  0  0  0  0  0  0  0  0
  1  2  2  0
  2  3  1  0
  3  4  1  0
  4  5  1  0
  5  6  1  0
  6  7  1  0
  7  8  1  0
  8  9  1  0
  3 10  2  0
 10 11  1  0
 11 12  2  0
 12  1  1  0
  9  4  1  0
M  END
>  <ref_pdb>  (868) 
A0926a

>  <subsites>  (868) 
1 - Active Site

>  <HIPPO Compound ID>  (868) 
12023

>  <energy_score>  (868) 
-16.217354

>  <fragmenstein_mode>  (868) 
expansion

>  <scratch_subdir>  (868) 
/opt/xchem-fragalysis-2/maxwin/BulkDock/SCRATCH/511196/C727-P93

>  <smiles>  (868) 
c1cc(N2CCCCC2)ccn1

>  <alias>  (868) 
C727-P93

>  <ref_mols>  (868) 
A3623a,A0926a

>  <inspiration_score>  (868) 
None

>  <tags>  (868) 
BulkDock Fragalysis export,fragmenstein_placed,openbind_a71ev2a_c1_knitwork_impure,openbind_a71ev2a_c1_scaffolds

>  <fragmenstein_outcome>  (868) 
acceptable

>  <fragmenstein_error>  (868) 


>  <distance_score>  (868) 
0.905371

>  <inchikey>  (868) 
BGTHUWNKRWKQLH-UHFFFAOYSA-N

>  <name>  (868) 
C727-P93

>  <HIPPO Pose ID>  (868) 
427412

>  <Energy>  (868) 
14.146504

>  <exports>  (868) 
['/opt/xchem-fragalysis-2/maxwin/BulkDock/OUTPUTS/openbind_a71ev2a_c1_knitwork_impure_165VXJF.sdf', '/opt/xchem-fragalysis-2/maxwin/BulkDock/OUTPUTS/openbind_a71ev2a_c1_knitwork_impure_1B07QS4.sdf', '/opt/xchem-fragalysis-2/maxwin/BulkDock/OUTPUTS/openbind_a71ev2a_c1_knitwork_impure_1B07X5R.sdf', '/opt/xchem-fragalysis-2/maxwin/openbind-hippo/a71ev2a/openbind_a71ev2a_c1_scaffold_products.sdf', '/opt/xchem-fragalysis-2/maxwin/openbind-hippo/a71ev2a/cycle_01/bulkdock/openbind_a71ev2a_c1_scaffold_products.sdf', '/opt/xchem-fragalysis-2/maxwin/openbind-hippo/a71ev2a/cycle_01/bulkdock/openbind_a71ev2a_c1_scaffolds.sdf']

>  <fragmenstein_runtime>  (868) 
3.719044

$$$$
C2304-P137
     RDKit          3D

 12 12  0  0  0  0  0  0  0  0999 V2000
    8.5261   10.5796   25.4248 N   0  0  0  0  0  0  0  0  0  0  0  0
    9.1073   11.0902   24.5610 C   0  0  0  0  0  0  0  0  0  0  0  0
    9.7677   11.6388   23.3844 C   0  0  0  0  0  0  0  0  0  0  0  0
   10.7432   12.7589   23.6890 C   0  0  0  0  0  0  0  0  0  0  0  0
   11.0719   13.0819   24.7616 O   0  0  0  0  0  0  0  0  0  0  0  0
   11.0741   13.3811   22.3054 N   0  0  0  0  0  0  0  0  0  0  0  0
   11.9474   14.4629   21.9563 C   0  0  0  0  0  0  0  0  0  0  0  0
   11.4026   15.0596   20.7082 C   0  0  0  0  0  0  0  0  0  0  0  0
   11.7819   14.8652   19.3956 C   0  0  0  0  0  0  0  0  0  0  0  0
   10.9578   15.6685   18.6515 N   0  0  0  0  0  0  0  0  0  0  0  0
   10.1244   16.3083   19.5228 C   0  0  0  0  0  0  0  0  0  0  0  0
   10.3250   15.9141   20.7577 N   0  0  0  0  0  0  0  0  0  0  0  0
  1  2  3  0
  2  3  1  0
  3  4  1  0
  4  5  2  0
  4  6  1  0
  6  7  1  0
  7  8  1  0
  8  9  2  0
  9 10  1  0
 10 11  1  0
 11 12  2  0
 12  8  1  0
M  END
>  <ref_pdb>  (869) 
A2972a

>  <subsites>  (869) 
1 - Active Site

>  <HIPPO Compound ID>  (869) 
8031

>  <energy_score>  (869) 
-5.583914

>  <fragmenstein_mode>  (869) 
expansion

>  <scratch_subdir>  (869) 
/opt/xchem-fragalysis-2/maxwin/BulkDock/SCRATCH/511196/C2304-P137

>  <smiles>  (869) 
N#CCC(=O)NCc1c[nH]cn1

>  <alias>  (869) 
C2304-P137

>  <ref_mols>  (869) 
A2972a,A1778a

>  <inspiration_score>  (869) 
None

>  <tags>  (869) 
BulkDock Fragalysis export,fragmenstein_placed,openbind_a71ev2a_c1_knitwork_impure,openbind_a71ev2a_c1_scaffolds

>  <fragmenstein_outcome>  (869) 
acceptable

>  <fragmenstein_error>  (869) 


>  <distance_score>  (869) 
0.886321

>  <inchikey>  (869) 
KPKZQXXJAPWOPZ-UHFFFAOYSA-N

>  <name>  (869) 
C2304-P137

>  <HIPPO Pose ID>  (869) 
427677

>  <Energy>  (869) 
7.81414

>  <exports>  (869) 
['/opt/xchem-fragalysis-2/maxwin/BulkDock/OUTPUTS/openbind_a71ev2a_c1_knitwork_impure_165VXJF.sdf', '/opt/xchem-fragalysis-2/maxwin/BulkDock/OUTPUTS/openbind_a71ev2a_c1_knitwork_impure_1B07QS4.sdf', '/opt/xchem-fragalysis-2/maxwin/BulkDock/OUTPUTS/openbind_a71ev2a_c1_knitwork_impure_1B07X5R.sdf', '/opt/xchem-fragalysis-2/maxwin/openbind-hippo/a71ev2a/openbind_a71ev2a_c1_scaffold_products.sdf', '/opt/xchem-fragalysis-2/maxwin/openbind-hippo/a71ev2a/cycle_01/bulkdock/openbind_a71ev2a_c1_scaffold_products.sdf', '/opt/xchem-fragalysis-2/maxwin/openbind-hippo/a71ev2a/cycle_01/bulkdock/openbind_a71ev2a_c1_scaffolds.sdf']

>  <fragmenstein_runtime>  (869) 
1.188497

$$$$
C2384-P423
     RDKit          3D

 15 15  0  0  0  0  0  0  0  0999 V2000
   11.7166   16.1008   22.3645 C   0  0  0  0  0  0  0  0  0  0  0  0
   10.4896   15.6825   23.1539 C   0  0  0  0  0  0  0  0  0  0  0  0
    9.6914   14.5837   22.4439 C   0  0  2  0  0  0  0  0  0  0  0  0
    9.3196   15.0567   21.0348 C   0  0  0  0  0  0  0  0  0  0  0  0
    8.4183   14.1444   23.1851 C   0  0  0  0  0  0  0  0  0  0  0  0
    7.3236   14.2501   22.6186 O   0  0  0  0  0  0  0  0  0  0  0  0
    8.4927   13.5616   24.6307 C   0  0  0  0  0  0  0  0  0  0  0  0
    9.8095   12.8016   24.8565 C   0  0  0  0  0  0  0  0  0  0  0  0
    8.4694   14.7656   25.6029 C   0  0  0  0  0  0  0  0  0  0  0  0
    7.2247   12.5935   24.8292 C   0  0  2  0  0  0  0  0  0  0  0  0
    6.2352   13.0594   25.9156 C   0  0  0  0  0  0  0  0  0  0  0  0
    5.0216   12.1444   26.0002 C   0  0  0  0  0  0  0  0  0  0  0  0
    5.4291   10.6897   26.1572 C   0  0  0  0  0  0  0  0  0  0  0  0
    6.3787   10.2582   25.1450 N   0  0  0  0  0  0  0  0  0  0  0  0
    7.5634   11.1028   25.0470 C   0  0  0  0  0  0  0  0  0  0  0  0
  1  2  1  0
  2  3  1  0
  3  4  1  6
  3  5  1  0
  5  6  2  0
  5  7  1  0
  7  8  1  0
  7  9  1  0
 10  7  1  1
 10 11  1  0
 11 12  1  0
 12 13  1  0
 13 14  1  0
 14 15  1  0
 15 10  1  0
M  END
>  <ref_pdb>  (870) 
A4650a

>  <subsites>  (870) 
1 - Active Site

>  <HIPPO Compound ID>  (870) 
43738

>  <energy_score>  (870) 
-45.875923

>  <fragmenstein_mode>  (870) 
expansion

>  <scratch_subdir>  (870) 
/opt/xchem-fragalysis-2/maxwin/BulkDock/SCRATCH/511196/C2384-P423

>  <smiles>  (870) 
CC[C@H](C)C(=O)C(C)(C)[C@@H]1CCCNC1

>  <alias>  (870) 
C2384-P423

>  <ref_mols>  (870) 
A1779a,A4650a

>  <inspiration_score>  (870) 
None

>  <tags>  (870) 
BulkDock Fragalysis export,fragmenstein_placed,openbind_a71ev2a_c1_knitwork_impure,openbind_a71ev2a_c1_scaffolds

>  <fragmenstein_outcome>  (870) 
acceptable

>  <fragmenstein_error>  (870) 


>  <distance_score>  (870) 
0.902139

>  <inchikey>  (870) 
OLOCMQZJQFEPLN-UHFFFAOYSA-N

>  <name>  (870) 
C2384-P423

>  <HIPPO Pose ID>  (870) 
427731

>  <Energy>  (870) 
36.988611

>  <exports>  (870) 
['/opt/xchem-fragalysis-2/maxwin/BulkDock/OUTPUTS/openbind_a71ev2a_c1_knitwork_impure_165VXJF.sdf', '/opt/xchem-fragalysis-2/maxwin/BulkDock/OUTPUTS/openbind_a71ev2a_c1_knitwork_impure_1B07QS4.sdf', '/opt/xchem-fragalysis-2/maxwin/BulkDock/OUTPUTS/openbind_a71ev2a_c1_knitwork_impure_1B07X5R.sdf', '/opt/xchem-fragalysis-2/maxwin/openbind-hippo/a71ev2a/openbind_a71ev2a_c1_scaffold_products.sdf', '/opt/xchem-fragalysis-2/maxwin/openbind-hippo/a71ev2a/cycle_01/bulkdock/openbind_a71ev2a_c1_scaffold_products.sdf', '/opt/xchem-fragalysis-2/maxwin/openbind-hippo/a71ev2a/cycle_01/bulkdock/openbind_a71ev2a_c1_scaffolds.sdf']

>  <fragmenstein_runtime>  (870) 
2.380687

$$$$
C2410-P423
     RDKit          3D

 14 14  0  0  0  0  0  0  0  0999 V2000
   11.6048   15.2187   22.9622 C   0  0  0  0  0  0  0  0  0  0  0  0
   10.3872   16.0570   23.2681 C   0  0  0  0  0  0  0  0  0  0  0  0
   10.2967   16.2546   24.6087 F   0  0  0  0  0  0  0  0  0  0  0  0
   10.5856   17.2948   22.7367 F   0  0  0  0  0  0  0  0  0  0  0  0
    9.0747   15.5094   22.7235 C   0  0  0  0  0  0  0  0  0  0  0  0
    8.6408   14.1252   23.2159 C   0  0  0  0  0  0  0  0  0  0  0  0
    8.5187   14.0250   24.7374 C   0  0  2  0  0  0  0  0  0  0  0  0
    9.7699   13.9017   25.2846 F   0  0  0  0  0  0  0  0  0  0  0  0
    7.7082   12.8210   25.2463 C   0  0  1  0  0  0  0  0  0  0  0  0
    6.2192   13.1371   25.3820 C   0  0  0  0  0  0  0  0  0  0  0  0
    5.5356   12.0389   26.1880 C   0  0  0  0  0  0  0  0  0  0  0  0
    5.8720   10.6507   25.6618 C   0  0  0  0  0  0  0  0  0  0  0  0
    7.3130   10.4571   25.1969 C   0  0  0  0  0  0  0  0  0  0  0  0
    7.8562   11.5892   24.4510 N   0  0  0  0  0  0  0  0  0  0  0  0
  1  2  1  0
  2  3  1  0
  2  4  1  0
  2  5  1  0
  5  6  1  0
  6  7  1  0
  7  8  1  1
  7  9  1  0
  9 10  1  6
 10 11  1  0
 11 12  1  0
 12 13  1  0
 13 14  1  0
 14  9  1  0
M  END
>  <ref_pdb>  (871) 
A4650a

>  <subsites>  (871) 
1 - Active Site

>  <HIPPO Compound ID>  (871) 
8874

>  <energy_score>  (871) 
-42.307629

>  <fragmenstein_mode>  (871) 
expansion

>  <scratch_subdir>  (871) 
/opt/xchem-fragalysis-2/maxwin/BulkDock/SCRATCH/511196/C2410-P423

>  <smiles>  (871) 
CC(F)(F)CC[C@H](F)[C@H]1CCCCN1

>  <alias>  (871) 
C2410-P423

>  <ref_mols>  (871) 
A1779a,A4650a

>  <inspiration_score>  (871) 
None

>  <tags>  (871) 
BulkDock Fragalysis export,fragmenstein_placed,openbind_a71ev2a_c1_knitwork_impure,openbind_a71ev2a_c1_scaffolds

>  <fragmenstein_outcome>  (871) 
acceptable

>  <fragmenstein_error>  (871) 


>  <distance_score>  (871) 
0.985827

>  <inchikey>  (871) 
QEGXPACMNFTTCL-UHFFFAOYSA-N

>  <name>  (871) 
C2410-P423

>  <HIPPO Pose ID>  (871) 
427736

>  <Energy>  (871) 
30.334915

>  <exports>  (871) 
['/opt/xchem-fragalysis-2/maxwin/BulkDock/OUTPUTS/openbind_a71ev2a_c1_knitwork_impure_165VXJF.sdf', '/opt/xchem-fragalysis-2/maxwin/BulkDock/OUTPUTS/openbind_a71ev2a_c1_knitwork_impure_1B07QS4.sdf', '/opt/xchem-fragalysis-2/maxwin/BulkDock/OUTPUTS/openbind_a71ev2a_c1_knitwork_impure_1B07X5R.sdf', '/opt/xchem-fragalysis-2/maxwin/openbind-hippo/a71ev2a/openbind_a71ev2a_c1_scaffold_products.sdf', '/opt/xchem-fragalysis-2/maxwin/openbind-hippo/a71ev2a/cycle_01/bulkdock/openbind_a71ev2a_c1_scaffold_products.sdf', '/opt/xchem-fragalysis-2/maxwin/openbind-hippo/a71ev2a/cycle_01/bulkdock/openbind_a71ev2a_c1_scaffolds.sdf']

>  <fragmenstein_runtime>  (871) 
1.907511

$$$$
C7192-P364
     RDKit          3D

  9  9  0  0  0  0  0  0  0  0999 V2000
    7.7205   13.3806   22.3431 O   0  0  0  0  0  0  0  0  0  0  0  0
    8.5435   14.1416   22.8501 C   0  0  0  0  0  0  0  0  0  0  0  0
   10.0077   13.8016   22.9797 C   0  0  0  0  0  0  0  0  0  0  0  0
   10.3164   13.2658   24.3701 C   0  0  0  0  0  0  0  0  0  0  0  0
    9.3654   12.1844   24.7446 C   0  0  0  0  0  0  0  0  0  0  0  0
    9.3774   10.8244   24.2984 C   0  0  0  0  0  0  0  0  0  0  0  0
    8.3971   10.0655   24.7877 N   0  0  0  0  0  0  0  0  0  0  0  0
    7.3991   11.1325   25.6032 S   0  0  0  0  0  0  0  0  0  0  0  0
    8.3407   12.5028   25.5434 N   0  0  0  0  0  0  0  0  0  0  0  0
  1  2  2  0
  2  3  1  0
  3  4  1  0
  4  5  1  0
  5  6  1  0
  6  7  2  0
  7  8  1  0
  8  9  1  0
  9  5  2  0
M  END
>  <ref_pdb>  (872) 
A4445b

>  <subsites>  (872) 
1 - Active Site

>  <HIPPO Compound ID>  (872) 
2344

>  <energy_score>  (872) 
-15.7134

>  <fragmenstein_mode>  (872) 
expansion

>  <scratch_subdir>  (872) 
/opt/xchem-fragalysis-2/maxwin/BulkDock/SCRATCH/511196/C7192-P364

>  <smiles>  (872) 
O=CCCc1cnsn1

>  <alias>  (872) 
C7192-P364

>  <ref_mols>  (872) 
A4445b,A1068a

>  <inspiration_score>  (872) 
None

>  <tags>  (872) 
BulkDock Fragalysis export,fragmenstein_placed,openbind_a71ev2a_c1_knitwork_impure,openbind_a71ev2a_c1_scaffolds

>  <fragmenstein_outcome>  (872) 
acceptable

>  <fragmenstein_error>  (872) 


>  <distance_score>  (872) 
0.909339

>  <inchikey>  (872) 
REDBGCCRMBTLLG-UHFFFAOYSA-N

>  <name>  (872) 
C7192-P364

>  <HIPPO Pose ID>  (872) 
427915

>  <Energy>  (872) 
-2.53528

>  <exports>  (872) 
['/opt/xchem-fragalysis-2/maxwin/BulkDock/OUTPUTS/openbind_a71ev2a_c1_knitwork_impure_165VXJF.sdf', '/opt/xchem-fragalysis-2/maxwin/BulkDock/OUTPUTS/openbind_a71ev2a_c1_knitwork_impure_1B07QS4.sdf', '/opt/xchem-fragalysis-2/maxwin/BulkDock/OUTPUTS/openbind_a71ev2a_c1_knitwork_impure_1B07X5R.sdf', '/opt/xchem-fragalysis-2/maxwin/openbind-hippo/a71ev2a/openbind_a71ev2a_c1_scaffold_products.sdf', '/opt/xchem-fragalysis-2/maxwin/openbind-hippo/a71ev2a/cycle_01/bulkdock/openbind_a71ev2a_c1_scaffold_products.sdf', '/opt/xchem-fragalysis-2/maxwin/openbind-hippo/a71ev2a/cycle_01/bulkdock/openbind_a71ev2a_c1_scaffolds.sdf']

>  <fragmenstein_runtime>  (872) 
1.088337

$$$$
C2059-P257
     RDKit          3D

 15 17  0  0  0  0  0  0  0  0999 V2000
    8.5439   13.0055   24.6683 C   0  0  0  0  0  0  0  0  0  0  0  0
    7.5951   12.9248   25.5734 N   0  0  0  0  0  0  0  0  0  0  0  0
    6.7829   13.9866   25.3028 C   0  0  0  0  0  0  0  0  0  0  0  0
    7.2541   14.7316   24.2394 C   0  0  0  0  0  0  0  0  0  0  0  0
    8.4070   14.1109   23.8508 N   0  0  0  0  0  0  0  0  0  0  0  0
    9.4406   14.4939   22.9003 C   0  0  0  0  0  0  0  0  0  0  0  0
   10.6054   15.1798   23.6236 C   0  0  0  0  0  0  0  0  0  0  0  0
   11.7610   15.3565   22.6512 C   0  0  0  0  0  0  0  0  0  0  0  0
   11.3598   16.1551   21.5056 N   0  0  0  0  0  0  0  0  0  0  0  0
   10.2417   15.5557   20.7718 C   0  0  0  0  0  0  0  0  0  0  0  0
    9.0314   15.3274   21.6824 C   0  0  0  0  0  0  0  0  0  0  0  0
    6.6176   15.9726   23.7212 C   0  0  0  0  0  0  0  0  0  0  0  0
    5.2020   16.1247   24.3174 C   0  0  0  0  0  0  0  0  0  0  0  0
    5.1204   15.7551   25.8070 C   0  0  0  0  0  0  0  0  0  0  0  0
    5.5438   14.2975   26.0566 C   0  0  0  0  0  0  0  0  0  0  0  0
  1  2  2  0
  2  3  1  0
  3  4  2  0
  4  5  1  0
  5  6  1  0
  6  7  1  0
  7  8  1  0
  8  9  1  0
  9 10  1  0
 10 11  1  0
  4 12  1  0
 12 13  1  0
 13 14  1  0
 14 15  1  0
  5  1  1  0
 11  6  1  0
 15  3  1  0
M  END
>  <ref_pdb>  (873) 
A3986b

>  <subsites>  (873) 
1 - Active Site

>  <HIPPO Compound ID>  (873) 
5444

>  <energy_score>  (873) 
-40.666334

>  <fragmenstein_mode>  (873) 
expansion

>  <scratch_subdir>  (873) 
/opt/xchem-fragalysis-2/maxwin/BulkDock/SCRATCH/511196/C2059-P257

>  <smiles>  (873) 
c1nc2c(n1C1CCNCC1)CCCC2

>  <alias>  (873) 
C2059-P257

>  <ref_mols>  (873) 
A3986b,A3371a

>  <inspiration_score>  (873) 
None

>  <tags>  (873) 
BulkDock Fragalysis export,fragmenstein_placed,openbind_a71ev2a_c1_knitwork_impure,openbind_a71ev2a_c1_scaffolds

>  <fragmenstein_outcome>  (873) 
acceptable

>  <fragmenstein_error>  (873) 


>  <distance_score>  (873) 
0.959738

>  <inchikey>  (873) 
FCBNDCMPKDFMCI-UHFFFAOYSA-N

>  <name>  (873) 
C2059-P257

>  <HIPPO Pose ID>  (873) 
428317

>  <Energy>  (873) 
-0.498883

>  <exports>  (873) 
['/opt/xchem-fragalysis-2/maxwin/BulkDock/OUTPUTS/openbind_a71ev2a_c1_knitwork_impure_165VXJF.sdf', '/opt/xchem-fragalysis-2/maxwin/BulkDock/OUTPUTS/openbind_a71ev2a_c1_knitwork_impure_1B07QS4.sdf', '/opt/xchem-fragalysis-2/maxwin/BulkDock/OUTPUTS/openbind_a71ev2a_c1_knitwork_impure_1B07X5R.sdf', '/opt/xchem-fragalysis-2/maxwin/openbind-hippo/a71ev2a/openbind_a71ev2a_c1_scaffold_products.sdf', '/opt/xchem-fragalysis-2/maxwin/openbind-hippo/a71ev2a/cycle_01/bulkdock/openbind_a71ev2a_c1_scaffold_products.sdf', '/opt/xchem-fragalysis-2/maxwin/openbind-hippo/a71ev2a/cycle_01/bulkdock/openbind_a71ev2a_c1_scaffolds.sdf']

>  <fragmenstein_runtime>  (873) 
44.189986

$$$$
C6703-P137
     RDKit          3D

 15 15  0  0  0  0  0  0  0  0999 V2000
   10.3222   13.9620   25.1393 C   0  0  0  0  0  0  0  0  0  0  0  0
   10.6656   13.0175   23.9853 C   0  0  0  0  0  0  0  0  0  0  0  0
   12.1393   12.6108   24.1140 C   0  0  0  0  0  0  0  0  0  0  0  0
   10.4080   13.6810   22.6235 C   0  0  0  0  0  0  0  0  0  0  0  0
   11.3896   14.7440   22.1987 C   0  0  0  0  0  0  0  0  0  0  0  0
   12.1615   15.2720   22.9853 O   0  0  0  0  0  0  0  0  0  0  0  0
   11.3069   15.0962   20.8237 C   0  0  0  0  0  0  0  0  0  0  0  0
   12.0086   14.5718   19.7680 C   0  0  0  0  0  0  0  0  0  0  0  0
   11.5791   15.1049   18.5965 N   0  0  0  0  0  0  0  0  0  0  0  0
   10.6656   15.9931   18.9246 C   0  0  0  0  0  0  0  0  0  0  0  0
   10.4673   16.0300   20.2737 N   0  0  0  0  0  0  0  0  0  0  0  0
    9.7206   11.8078   24.0434 C   0  0  0  0  0  0  0  0  0  0  0  0
   10.0567   10.8644   23.1421 F   0  0  0  0  0  0  0  0  0  0  0  0
    8.4461   12.1785   23.7906 F   0  0  0  0  0  0  0  0  0  0  0  0
    9.6946   11.2249   25.2575 F   0  0  0  0  0  0  0  0  0  0  0  0
  1  2  1  0
  2  3  1  0
  2  4  1  0
  4  5  1  0
  5  6  2  0
  5  7  1  0
  7  8  2  0
  8  9  1  0
  9 10  2  0
 10 11  1  0
  2 12  1  0
 12 13  1  0
 12 14  1  0
 12 15  1  0
 11  7  1  0
M  END
>  <ref_pdb>  (874) 
A2972a

>  <subsites>  (874) 
1 - Active Site

>  <HIPPO Compound ID>  (874) 
8853

>  <energy_score>  (874) 
-11.21704

>  <fragmenstein_mode>  (874) 
expansion

>  <scratch_subdir>  (874) 
/opt/xchem-fragalysis-2/maxwin/BulkDock/SCRATCH/511196/C6703-P137

>  <smiles>  (874) 
CC(C)(CC(=O)c1cnc[nH]1)C(F)(F)F

>  <alias>  (874) 
C6703-P137

>  <ref_mols>  (874) 
A2972a,A1779a

>  <inspiration_score>  (874) 
None

>  <tags>  (874) 
BulkDock Fragalysis export,fragmenstein_placed,openbind_a71ev2a_c1_knitwork_impure,openbind_a71ev2a_c1_scaffolds

>  <fragmenstein_outcome>  (874) 
acceptable

>  <fragmenstein_error>  (874) 


>  <distance_score>  (874) 
0.971128

>  <inchikey>  (874) 
HMWULAZTFKYULC-UHFFFAOYSA-N

>  <name>  (874) 
C6703-P137

>  <HIPPO Pose ID>  (874) 
428832

>  <Energy>  (874) 
15.3002

>  <exports>  (874) 
['/opt/xchem-fragalysis-2/maxwin/BulkDock/OUTPUTS/openbind_a71ev2a_c1_knitwork_impure_165VXJF.sdf', '/opt/xchem-fragalysis-2/maxwin/BulkDock/OUTPUTS/openbind_a71ev2a_c1_knitwork_impure_1B07QS4.sdf', '/opt/xchem-fragalysis-2/maxwin/BulkDock/OUTPUTS/openbind_a71ev2a_c1_knitwork_impure_1B07X5R.sdf', '/opt/xchem-fragalysis-2/maxwin/openbind-hippo/a71ev2a/openbind_a71ev2a_c1_scaffold_products.sdf', '/opt/xchem-fragalysis-2/maxwin/openbind-hippo/a71ev2a/cycle_01/bulkdock/openbind_a71ev2a_c1_scaffold_products.sdf', '/opt/xchem-fragalysis-2/maxwin/openbind-hippo/a71ev2a/cycle_01/bulkdock/openbind_a71ev2a_c1_scaffolds.sdf']

>  <fragmenstein_runtime>  (874) 
5.221792

$$$$
C1595-P220
     RDKit          3D

 13 13  0  0  0  0  0  0  0  0999 V2000
    7.6178   10.8035   25.1082 C   0  0  0  0  0  0  0  0  0  0  0  0
    8.0652   11.9930   24.6908 C   0  0  0  0  0  0  0  0  0  0  0  0
    9.3089   12.1649   23.8666 C   0  0  0  0  0  0  0  0  0  0  0  0
   10.2079   13.2524   24.4424 C   0  0  0  0  0  0  0  0  0  0  0  0
   11.5068   13.3814   23.6664 C   0  0  0  0  0  0  0  0  0  0  0  0
   12.5463   13.0408   24.0635 O   0  0  0  0  0  0  0  0  0  0  0  0
   11.1120   14.0121   22.3235 N   0  0  0  0  0  0  0  0  0  0  0  0
   11.9213   14.4435   21.2250 C   0  0  0  0  0  0  0  0  0  0  0  0
   11.0189   15.2867   20.4161 C   0  0  0  0  0  0  0  0  0  0  0  0
   10.8283   15.3665   19.0606 C   0  0  0  0  0  0  0  0  0  0  0  0
    9.8605   16.2979   18.8348 O   0  0  0  0  0  0  0  0  0  0  0  0
    9.5403   16.7647   20.0692 C   0  0  0  0  0  0  0  0  0  0  0  0
   10.1422   16.1474   21.0509 N   0  0  0  0  0  0  0  0  0  0  0  0
  1  2  2  0
  2  3  1  0
  3  4  1  0
  4  5  1  0
  5  6  2  0
  5  7  1  0
  7  8  1  0
  8  9  1  0
  9 10  2  0
 10 11  1  0
 11 12  1  0
 12 13  2  0
 13  9  1  0
M  END
>  <ref_pdb>  (875) 
A3568a

>  <subsites>  (875) 
1 - Active Site

>  <HIPPO Compound ID>  (875) 
3260

>  <energy_score>  (875) 
-10.95524

>  <fragmenstein_mode>  (875) 
expansion

>  <scratch_subdir>  (875) 
/opt/xchem-fragalysis-2/maxwin/BulkDock/SCRATCH/511196/C1595-P220

>  <smiles>  (875) 
C=CCCC(=O)NCc1cocn1

>  <alias>  (875) 
C1595-P220

>  <ref_mols>  (875) 
A1778a,A3568a

>  <inspiration_score>  (875) 
None

>  <tags>  (875) 
BulkDock Fragalysis export,fragmenstein_placed,openbind_a71ev2a_c1_knitwork_impure,openbind_a71ev2a_c1_scaffolds

>  <fragmenstein_outcome>  (875) 
acceptable

>  <fragmenstein_error>  (875) 


>  <distance_score>  (875) 
0.932706

>  <inchikey>  (875) 
WYESEHOBLJZBFR-UHFFFAOYSA-N

>  <name>  (875) 
C1595-P220

>  <HIPPO Pose ID>  (875) 
429201

>  <Energy>  (875) 
10.496826

>  <exports>  (875) 
['/opt/xchem-fragalysis-2/maxwin/BulkDock/OUTPUTS/openbind_a71ev2a_c1_knitwork_impure_165VXJF.sdf', '/opt/xchem-fragalysis-2/maxwin/BulkDock/OUTPUTS/openbind_a71ev2a_c1_knitwork_impure_1B07QS4.sdf', '/opt/xchem-fragalysis-2/maxwin/BulkDock/OUTPUTS/openbind_a71ev2a_c1_knitwork_impure_1B07X5R.sdf', '/opt/xchem-fragalysis-2/maxwin/openbind-hippo/a71ev2a/openbind_a71ev2a_c1_scaffold_products.sdf', '/opt/xchem-fragalysis-2/maxwin/openbind-hippo/a71ev2a/cycle_01/bulkdock/openbind_a71ev2a_c1_scaffold_products.sdf', '/opt/xchem-fragalysis-2/maxwin/openbind-hippo/a71ev2a/cycle_01/bulkdock/openbind_a71ev2a_c1_scaffolds.sdf']

>  <fragmenstein_runtime>  (875) 
2.035945

$$$$
C1627-P220
     RDKit          3D

 16 16  0  0  0  0  0  0  0  0999 V2000
    6.1176   10.9512   26.0363 C   0  0  0  0  0  0  0  0  0  0  0  0
    7.4243   10.8940   25.3257 C   0  0  0  0  0  0  0  0  0  0  0  0
    7.7885   11.7682   24.3820 C   0  0  0  0  0  0  0  0  0  0  0  0
    9.1523   11.8015   23.7681 C   0  0  0  0  0  0  0  0  0  0  0  0
    9.7356   13.2106   23.8047 C   0  0  1  0  0  0  0  0  0  0  0  0
    9.9371   13.8553   25.1646 C   0  0  0  0  0  0  0  0  0  0  0  0
    8.6749   14.3551   25.8512 C   0  0  0  0  0  0  0  0  0  0  0  0
   11.1359   13.2037   23.1899 C   0  0  0  0  0  0  0  0  0  0  0  0
   12.0625   12.6626   23.6341 O   0  0  0  0  0  0  0  0  0  0  0  0
   11.0134   14.1248   21.9792 N   0  0  0  0  0  0  0  0  0  0  0  0
   11.9766   14.5029   21.0036 C   0  0  0  0  0  0  0  0  0  0  0  0
   11.1475   15.3878   20.1708 C   0  0  0  0  0  0  0  0  0  0  0  0
   10.8413   15.3379   18.8407 C   0  0  0  0  0  0  0  0  0  0  0  0
    9.8403   16.2317   18.6195 O   0  0  0  0  0  0  0  0  0  0  0  0
    9.6450   16.8410   19.8168 C   0  0  0  0  0  0  0  0  0  0  0  0
   10.3524   16.3405   20.7924 N   0  0  0  0  0  0  0  0  0  0  0  0
  1  2  1  0
  2  3  2  3
  3  4  1  0
  5  4  1  1
  5  6  1  0
  6  7  1  0
  5  8  1  0
  8  9  2  0
  8 10  1  0
 10 11  1  0
 11 12  1  0
 12 13  2  0
 13 14  1  0
 14 15  1  0
 15 16  2  0
 16 12  1  0
M  END
>  <ref_pdb>  (876) 
A3568a

>  <subsites>  (876) 
1 - Active Site

>  <HIPPO Compound ID>  (876) 
3300

>  <energy_score>  (876) 
-2.878621

>  <fragmenstein_mode>  (876) 
expansion

>  <scratch_subdir>  (876) 
/opt/xchem-fragalysis-2/maxwin/BulkDock/SCRATCH/511196/C1627-P220

>  <smiles>  (876) 
CC=CC[C@@H](CC)C(=O)NCc1cocn1

>  <alias>  (876) 
C1627-P220

>  <ref_mols>  (876) 
A1778a,A3568a

>  <inspiration_score>  (876) 
None

>  <tags>  (876) 
BulkDock Fragalysis export,fragmenstein_placed,openbind_a71ev2a_c1_knitwork_impure,openbind_a71ev2a_c1_scaffolds

>  <fragmenstein_outcome>  (876) 
acceptable

>  <fragmenstein_error>  (876) 


>  <distance_score>  (876) 
0.960922

>  <inchikey>  (876) 
ZSLFMECWUGWMJH-UHFFFAOYSA-N

>  <name>  (876) 
C1627-P220

>  <HIPPO Pose ID>  (876) 
429214

>  <Energy>  (876) 
25.223553

>  <exports>  (876) 
['/opt/xchem-fragalysis-2/maxwin/BulkDock/OUTPUTS/openbind_a71ev2a_c1_knitwork_impure_165VXJF.sdf', '/opt/xchem-fragalysis-2/maxwin/BulkDock/OUTPUTS/openbind_a71ev2a_c1_knitwork_impure_1B07QS4.sdf', '/opt/xchem-fragalysis-2/maxwin/BulkDock/OUTPUTS/openbind_a71ev2a_c1_knitwork_impure_1B07X5R.sdf', '/opt/xchem-fragalysis-2/maxwin/openbind-hippo/a71ev2a/openbind_a71ev2a_c1_scaffold_products.sdf', '/opt/xchem-fragalysis-2/maxwin/openbind-hippo/a71ev2a/cycle_01/bulkdock/openbind_a71ev2a_c1_scaffold_products.sdf', '/opt/xchem-fragalysis-2/maxwin/openbind-hippo/a71ev2a/cycle_01/bulkdock/openbind_a71ev2a_c1_scaffolds.sdf']

>  <fragmenstein_runtime>  (876) 
2.906971

$$$$
C12320-P183
     RDKit          3D

 12 12  0  0  0  0  0  0  0  0999 V2000
    6.9161   15.1751   26.6693 C   0  0  0  0  0  0  0  0  0  0  0  0
    7.7170   14.7225   25.4647 C   0  0  0  0  0  0  0  0  0  0  0  0
    6.8820   14.7432   24.1926 C   0  0  0  0  0  0  0  0  0  0  0  0
    7.7309   14.1849   22.7076 S   0  0  0  0  0  0  0  0  0  0  0  0
    8.3087   15.3149   22.0215 O   0  0  0  0  0  0  0  0  0  0  0  0
    6.8674   13.2725   21.9911 O   0  0  0  0  0  0  0  0  0  0  0  0
    9.0456   13.3058   23.2529 N   0  0  0  0  0  0  0  0  0  0  0  0
    8.9572   11.9761   23.6491 C   0  0  0  0  0  0  0  0  0  0  0  0
    8.0108   11.4026   24.5476 C   0  0  0  0  0  0  0  0  0  0  0  0
    8.2280   10.0489   24.6832 C   0  0  0  0  0  0  0  0  0  0  0  0
    9.4793    9.5942   23.6121 S   0  0  0  0  0  0  0  0  0  0  0  0
    9.8743   11.1425   23.1823 N   0  0  0  0  0  0  0  0  0  0  0  0
  1  2  1  0
  2  3  1  0
  3  4  1  0
  4  5  2  0
  4  6  2  0
  4  7  1  0
  7  8  1  0
  8  9  1  0
  9 10  2  0
 10 11  1  0
 11 12  1  0
 12  8  2  0
M  END
>  <ref_pdb>  (877) 
A3436a

>  <subsites>  (877) 
1 - Active Site

>  <HIPPO Compound ID>  (877) 
5645

>  <energy_score>  (877) 
-37.946336

>  <fragmenstein_mode>  (877) 
expansion

>  <scratch_subdir>  (877) 
/opt/xchem-fragalysis-2/maxwin/BulkDock/SCRATCH/511196/C12320-P183

>  <smiles>  (877) 
CCCS(=O)(=O)Nc1ccsn1

>  <alias>  (877) 
C12320-P183

>  <ref_mols>  (877) 
A0719a,A3436a

>  <inspiration_score>  (877) 
None

>  <tags>  (877) 
BulkDock Fragalysis export,fragmenstein_placed,openbind_a71ev2a_c1_knitwork_impure,openbind_a71ev2a_c1_scaffolds

>  <fragmenstein_outcome>  (877) 
acceptable

>  <fragmenstein_error>  (877) 


>  <distance_score>  (877) 
0.829455

>  <inchikey>  (877) 
FDDRMMFQTUMLQU-UHFFFAOYSA-N

>  <name>  (877) 
C12320-P183

>  <HIPPO Pose ID>  (877) 
429396

>  <Energy>  (877) 
-91.533428

>  <exports>  (877) 
['/opt/xchem-fragalysis-2/maxwin/BulkDock/OUTPUTS/openbind_a71ev2a_c1_knitwork_impure_165VXJF.sdf', '/opt/xchem-fragalysis-2/maxwin/BulkDock/OUTPUTS/openbind_a71ev2a_c1_knitwork_impure_1B07QS4.sdf', '/opt/xchem-fragalysis-2/maxwin/BulkDock/OUTPUTS/openbind_a71ev2a_c1_knitwork_impure_1B07X5R.sdf', '/opt/xchem-fragalysis-2/maxwin/openbind-hippo/a71ev2a/openbind_a71ev2a_c1_scaffold_products.sdf', '/opt/xchem-fragalysis-2/maxwin/openbind-hippo/a71ev2a/cycle_01/bulkdock/openbind_a71ev2a_c1_scaffold_products.sdf', '/opt/xchem-fragalysis-2/maxwin/openbind-hippo/a71ev2a/cycle_01/bulkdock/openbind_a71ev2a_c1_scaffolds.sdf']

>  <fragmenstein_runtime>  (877) 
2.417407

$$$$
C12328-P183
     RDKit          3D

 21 23  0  0  0  0  0  0  0  0999 V2000
    7.7681   15.4993   22.0454 O   0  0  0  0  0  0  0  0  0  0  0  0
    7.8219   14.3980   22.9636 S   0  0  0  0  0  0  0  0  0  0  0  0
    7.4969   13.0688   22.4926 O   0  0  0  0  0  0  0  0  0  0  0  0
    6.7099   14.7816   24.3055 C   0  0  0  0  0  0  0  0  0  0  0  0
    7.0932   14.2641   25.6929 C   0  0  0  0  0  0  0  0  0  0  0  0
    6.8024   12.7858   25.9882 C   0  0  0  0  0  0  0  0  0  0  0  0
    7.6132   11.7446   25.4065 N   0  0  0  0  0  0  0  0  0  0  0  0
    7.3664   10.4023   25.4565 C   0  0  0  0  0  0  0  0  0  0  0  0
    8.3089    9.8186   24.6401 C   0  0  0  0  0  0  0  0  0  0  0  0
    9.1115   10.8783   24.2108 C   0  0  0  0  0  0  0  0  0  0  0  0
    8.7986   12.0175   24.8405 N   0  0  0  0  0  0  0  0  0  0  0  0
    9.3199   14.3542   23.8323 N   0  0  0  0  0  0  0  0  0  0  0  0
   10.6957   13.9441   23.3692 C   0  0  1  0  0  0  0  0  0  0  0  0
   10.8103   13.2678   22.0359 C   0  0  0  0  0  0  0  0  0  0  0  0
   11.6959   14.4022   21.5098 C   0  0  1  0  0  0  0  0  0  0  0  0
   10.9268   15.2816   20.6346 N   0  0  0  0  0  0  0  0  0  0  0  0
   10.6726   14.9788   19.3392 C   0  0  0  0  0  0  0  0  0  0  0  0
    9.6281   15.7936   18.9947 C   0  0  0  0  0  0  0  0  0  0  0  0
    9.4636   16.6739   20.0699 C   0  0  0  0  0  0  0  0  0  0  0  0
   10.2984   16.3731   21.0621 N   0  0  0  0  0  0  0  0  0  0  0  0
   11.8259   14.8765   22.9541 C   0  0  0  0  0  0  0  0  0  0  0  0
  1  2  2  0
  2  3  2  0
  2  4  1  0
  4  5  1  0
  5  6  1  0
  6  7  1  0
  7  8  1  0
  8  9  2  0
  9 10  1  0
 10 11  2  0
  2 12  1  0
 13 12  1  6
 13 14  1  0
 14 15  1  0
 15 16  1  6
 16 17  1  0
 17 18  2  0
 18 19  1  0
 19 20  2  0
 15 21  1  0
 11  7  1  0
 21 13  1  0
 20 16  1  0
M  END
>  <ref_pdb>  (878) 
A3436a

>  <subsites>  (878) 
1 - Active Site

>  <HIPPO Compound ID>  (878) 
2404

>  <energy_score>  (878) 
-22.518709

>  <fragmenstein_mode>  (878) 
expansion

>  <scratch_subdir>  (878) 
/opt/xchem-fragalysis-2/maxwin/BulkDock/SCRATCH/511196/C12328-P183

>  <smiles>  (878) 
O=S(=O)(CCCn1cccn1)N[C@H]1C[C@@H](n2cccn2)C1

>  <alias>  (878) 
C12328-P183

>  <ref_mols>  (878) 
A0719a,A3436a

>  <inspiration_score>  (878) 
None

>  <tags>  (878) 
BulkDock Fragalysis export,fragmenstein_placed,openbind_a71ev2a_c1_knitwork_impure,openbind_a71ev2a_c1_scaffolds

>  <fragmenstein_outcome>  (878) 
acceptable

>  <fragmenstein_error>  (878) 


>  <distance_score>  (878) 
0.994305

>  <inchikey>  (878) 
MZHCZVDDNWLPPV-UHFFFAOYSA-N

>  <name>  (878) 
C12328-P183

>  <HIPPO Pose ID>  (878) 
429400

>  <Energy>  (878) 
-27.242088

>  <exports>  (878) 
['/opt/xchem-fragalysis-2/maxwin/BulkDock/OUTPUTS/openbind_a71ev2a_c1_knitwork_impure_165VXJF.sdf', '/opt/xchem-fragalysis-2/maxwin/BulkDock/OUTPUTS/openbind_a71ev2a_c1_knitwork_impure_1B07QS4.sdf', '/opt/xchem-fragalysis-2/maxwin/BulkDock/OUTPUTS/openbind_a71ev2a_c1_knitwork_impure_1B07X5R.sdf', '/opt/xchem-fragalysis-2/maxwin/openbind-hippo/a71ev2a/openbind_a71ev2a_c1_scaffold_products.sdf', '/opt/xchem-fragalysis-2/maxwin/openbind-hippo/a71ev2a/cycle_01/bulkdock/openbind_a71ev2a_c1_scaffold_products.sdf', '/opt/xchem-fragalysis-2/maxwin/openbind-hippo/a71ev2a/cycle_01/bulkdock/openbind_a71ev2a_c1_scaffolds.sdf']

>  <fragmenstein_runtime>  (878) 
3.751844

$$$$
C4803-P390
     RDKit          3D

 10 11  0  0  0  0  0  0  0  0999 V2000
    4.2326   15.2342   26.6096 C   0  0  0  0  0  0  0  0  0  0  0  0
    5.1557   14.3518   26.2234 C   0  0  0  0  0  0  0  0  0  0  0  0
    5.9991   14.2117   24.9665 C   0  0  0  0  0  0  0  0  0  0  0  0
    6.9465   13.4013   25.8858 C   0  0  0  0  0  0  0  0  0  0  0  0
    7.6212   12.1566   25.2506 C   0  0  0  0  0  0  0  0  0  0  0  0
    7.4357   10.8240   25.6259 C   0  0  0  0  0  0  0  0  0  0  0  0
    8.2324   10.0040   24.9435 N   0  0  0  0  0  0  0  0  0  0  0  0
    8.8877   10.8064   24.0873 N   0  0  0  0  0  0  0  0  0  0  0  0
    8.5680   12.1284   24.2546 C   0  0  0  0  0  0  0  0  0  0  0  0
    5.7581   13.1184   26.8585 C   0  0  0  0  0  0  0  0  0  0  0  0
  1  2  2  0
  2  3  1  0
  3  4  1  0
  4  5  1  0
  5  6  1  0
  6  7  2  0
  7  8  1  0
  8  9  1  0
  4 10  1  0
 10  2  1  0
  9  5  2  0
M  END
>  <ref_pdb>  (879) 
A4524a

>  <subsites>  (879) 
1 - Active Site

>  <HIPPO Compound ID>  (879) 
7461

>  <energy_score>  (879) 
-15.722162

>  <fragmenstein_mode>  (879) 
expansion

>  <scratch_subdir>  (879) 
/opt/xchem-fragalysis-2/maxwin/BulkDock/SCRATCH/511196/C4803-P390

>  <smiles>  (879) 
C=C1CC(c2cn[nH]c2)C1

>  <alias>  (879) 
C4803-P390

>  <ref_mols>  (879) 
A0556a,A4524a

>  <inspiration_score>  (879) 
None

>  <tags>  (879) 
BulkDock Fragalysis export,fragmenstein_placed,openbind_a71ev2a_c1_knitwork_impure,openbind_a71ev2a_c1_scaffolds

>  <fragmenstein_outcome>  (879) 
acceptable

>  <fragmenstein_error>  (879) 


>  <distance_score>  (879) 
0.823812

>  <inchikey>  (879) 
AIXXEJFHVOHRFJ-UHFFFAOYSA-N

>  <name>  (879) 
C4803-P390

>  <HIPPO Pose ID>  (879) 
429483

>  <Energy>  (879) 
28.239445

>  <exports>  (879) 
['/opt/xchem-fragalysis-2/maxwin/BulkDock/OUTPUTS/openbind_a71ev2a_c1_knitwork_impure_165VXJF.sdf', '/opt/xchem-fragalysis-2/maxwin/BulkDock/OUTPUTS/openbind_a71ev2a_c1_knitwork_impure_1B07QS4.sdf', '/opt/xchem-fragalysis-2/maxwin/BulkDock/OUTPUTS/openbind_a71ev2a_c1_knitwork_impure_1B07X5R.sdf', '/opt/xchem-fragalysis-2/maxwin/openbind-hippo/a71ev2a/openbind_a71ev2a_c1_scaffold_products.sdf', '/opt/xchem-fragalysis-2/maxwin/openbind-hippo/a71ev2a/cycle_01/bulkdock/openbind_a71ev2a_c1_scaffold_products.sdf', '/opt/xchem-fragalysis-2/maxwin/openbind-hippo/a71ev2a/cycle_01/bulkdock/openbind_a71ev2a_c1_scaffolds.sdf']

>  <fragmenstein_runtime>  (879) 
6.181939

$$$$
C8152-P198
     RDKit          3D

 14 14  0  0  0  0  0  0  0  0999 V2000
    3.9982   12.2645   27.1098 C   0  0  0  0  0  0  0  0  0  0  0  0
    5.1042   11.6453   26.2817 C   0  0  0  0  0  0  0  0  0  0  0  0
    6.0130   12.6759   25.8672 O   0  0  0  0  0  0  0  0  0  0  0  0
    6.9483   12.2403   24.9716 C   0  0  0  0  0  0  0  0  0  0  0  0
    6.9687   11.1189   24.4810 O   0  0  0  0  0  0  0  0  0  0  0  0
    8.0225   13.3023   24.7177 C   0  0  2  0  0  0  0  0  0  0  0  0
    8.0419   14.3488   25.6956 O   0  0  0  0  0  0  0  0  0  0  0  0
    7.9259   13.9304   23.3151 C   0  0  0  0  0  0  0  0  0  0  0  0
    9.2196   14.1970   22.6483 N   0  0  0  0  0  0  0  0  0  0  0  0
   10.2619   14.7610   23.5144 C   0  0  0  0  0  0  0  0  0  0  0  0
   11.5874   14.8140   22.7577 C   0  0  0  0  0  0  0  0  0  0  0  0
   11.4783   15.7024   21.5302 C   0  0  0  0  0  0  0  0  0  0  0  0
   10.3154   15.2473   20.6601 C   0  0  0  0  0  0  0  0  0  0  0  0
    9.0269   15.0629   21.4674 C   0  0  0  0  0  0  0  0  0  0  0  0
  1  2  1  0
  2  3  1  0
  3  4  1  0
  4  5  2  0
  4  6  1  0
  6  7  1  1
  6  8  1  0
  8  9  1  0
  9 10  1  0
 10 11  1  0
 11 12  1  0
 12 13  1  0
 13 14  1  0
 14  9  1  0
M  END
>  <ref_pdb>  (880) 
A3618a

>  <subsites>  (880) 
1 - Active Site

>  <HIPPO Compound ID>  (880) 
712

>  <energy_score>  (880) 
-27.987355

>  <fragmenstein_mode>  (880) 
expansion

>  <scratch_subdir>  (880) 
/opt/xchem-fragalysis-2/maxwin/BulkDock/SCRATCH/512211/C8152-P198

>  <smiles>  (880) 
CCOC(=O)[C@H](O)CN1CCCCC1

>  <alias>  (880) 
C8152-P198

>  <ref_mols>  (880) 
A0719a,A3618a

>  <inspiration_score>  (880) 
None

>  <tags>  (880) 
BulkDock Fragalysis export,fragmenstein_placed,openbind_a71ev2a_c1_knitwork_impure,openbind_a71ev2a_c1_scaffolds

>  <fragmenstein_outcome>  (880) 
acceptable

>  <fragmenstein_error>  (880) 


>  <distance_score>  (880) 
0.871187

>  <inchikey>  (880) 
YOAMNICQXAJQJO-UHFFFAOYSA-N

>  <name>  (880) 
C8152-P198

>  <HIPPO Pose ID>  (880) 
430243

>  <Energy>  (880) 
52.058734

>  <exports>  (880) 
['/opt/xchem-fragalysis-2/maxwin/BulkDock/OUTPUTS/openbind_a71ev2a_c1_knitwork_impure_165VXJF.sdf', '/opt/xchem-fragalysis-2/maxwin/BulkDock/OUTPUTS/openbind_a71ev2a_c1_knitwork_impure_1B07QS4.sdf', '/opt/xchem-fragalysis-2/maxwin/BulkDock/OUTPUTS/openbind_a71ev2a_c1_knitwork_impure_1B07X5R.sdf', '/opt/xchem-fragalysis-2/maxwin/openbind-hippo/a71ev2a/openbind_a71ev2a_c1_scaffold_products.sdf', '/opt/xchem-fragalysis-2/maxwin/openbind-hippo/a71ev2a/cycle_01/bulkdock/openbind_a71ev2a_c1_scaffold_products.sdf', '/opt/xchem-fragalysis-2/maxwin/openbind-hippo/a71ev2a/cycle_01/bulkdock/openbind_a71ev2a_c1_scaffolds.sdf']

>  <fragmenstein_runtime>  (880) 
1.99076

$$$$
C4755-P613
     RDKit          3D

 10 11  0  0  0  0  0  0  0  0999 V2000
    7.3470   10.6469   25.5214 C   0  0  0  0  0  0  0  0  0  0  0  0
    7.8174    9.4783   25.0888 N   0  0  0  0  0  0  0  0  0  0  0  0
    8.7796    9.8265   24.2144 N   0  0  0  0  0  0  0  0  0  0  0  0
    8.9261   11.1805   24.0968 C   0  0  0  0  0  0  0  0  0  0  0  0
    7.9983   11.7652   24.9416 C   0  0  0  0  0  0  0  0  0  0  0  0
    7.7955   13.2110   25.2580 C   0  0  1  0  0  0  0  0  0  0  0  0
    7.9613   14.0536   24.0670 N   0  0  0  0  0  0  0  0  0  0  0  0
    6.6272   14.3505   23.5340 C   0  0  0  0  0  0  0  0  0  0  0  0
    5.6782   14.6664   24.6798 C   0  0  0  0  0  0  0  0  0  0  0  0
    6.1950   13.5700   26.0164 S   0  0  0  0  0  0  0  0  0  0  0  0
  1  2  2  0
  2  3  1  0
  3  4  1  0
  4  5  2  0
  6  5  1  6
  6  7  1  0
  7  8  1  0
  8  9  1  0
  9 10  1  0
  5  1  1  0
 10  6  1  0
M  END
>  <ref_pdb>  (881) 
A5394b

>  <subsites>  (881) 
1 - Active Site

>  <HIPPO Compound ID>  (881) 
10704

>  <energy_score>  (881) 
-17.877914

>  <fragmenstein_mode>  (881) 
expansion

>  <scratch_subdir>  (881) 
/opt/xchem-fragalysis-2/maxwin/BulkDock/SCRATCH/512211/C4755-P613

>  <smiles>  (881) 
c1n[nH]cc1[C@H]1NCCS1

>  <alias>  (881) 
C4755-P613

>  <ref_mols>  (881) 
A0556a,A5394b

>  <inspiration_score>  (881) 
None

>  <tags>  (881) 
BulkDock Fragalysis export,fragmenstein_placed,openbind_a71ev2a_c1_knitwork_impure,openbind_a71ev2a_c1_scaffolds

>  <fragmenstein_outcome>  (881) 
acceptable

>  <fragmenstein_error>  (881) 


>  <distance_score>  (881) 
0.927556

>  <inchikey>  (881) 
CYLXWSNDBHUDSS-UHFFFAOYSA-N

>  <name>  (881) 
C4755-P613

>  <HIPPO Pose ID>  (881) 
430732

>  <Energy>  (881) 
0.560868

>  <exports>  (881) 
['/opt/xchem-fragalysis-2/maxwin/BulkDock/OUTPUTS/openbind_a71ev2a_c1_knitwork_impure_165VXJF.sdf', '/opt/xchem-fragalysis-2/maxwin/BulkDock/OUTPUTS/openbind_a71ev2a_c1_knitwork_impure_1B07QS4.sdf', '/opt/xchem-fragalysis-2/maxwin/BulkDock/OUTPUTS/openbind_a71ev2a_c1_knitwork_impure_1B07X5R.sdf', '/opt/xchem-fragalysis-2/maxwin/openbind-hippo/a71ev2a/openbind_a71ev2a_c1_scaffold_products.sdf', '/opt/xchem-fragalysis-2/maxwin/openbind-hippo/a71ev2a/cycle_01/bulkdock/openbind_a71ev2a_c1_scaffold_products.sdf', '/opt/xchem-fragalysis-2/maxwin/openbind-hippo/a71ev2a/cycle_01/bulkdock/openbind_a71ev2a_c1_scaffolds.sdf']

>  <fragmenstein_runtime>  (881) 
0.766678

$$$$
C4790-P329
     RDKit          3D

 10 11  0  0  0  0  0  0  0  0999 V2000
    8.0664   14.1057   24.8965 C   0  0  0  0  0  0  0  0  0  0  0  0
    7.5448   12.9452   25.3109 C   0  0  0  0  0  0  0  0  0  0  0  0
    7.9684   11.6246   25.0352 C   0  0  0  0  0  0  0  0  0  0  0  0
    7.4200   10.4183   25.5084 C   0  0  0  0  0  0  0  0  0  0  0  0
    8.0610    9.3458   25.0459 N   0  0  0  0  0  0  0  0  0  0  0  0
    9.0279    9.8629   24.2615 N   0  0  0  0  0  0  0  0  0  0  0  0
    9.0119   11.2315   24.2286 C   0  0  0  0  0  0  0  0  0  0  0  0
    6.3555   13.1544   26.2007 C   0  0  0  0  0  0  0  0  0  0  0  0
    6.0336   14.6335   25.9759 C   0  0  0  0  0  0  0  0  0  0  0  0
    7.3118   15.2735   25.4368 C   0  0  0  0  0  0  0  0  0  0  0  0
  1  2  2  0
  2  3  1  0
  3  4  1  0
  4  5  2  0
  5  6  1  0
  6  7  1  0
  2  8  1  0
  8  9  1  0
  9 10  1  0
 10  1  1  0
  7  3  2  0
M  END
>  <ref_pdb>  (882) 
A4374b

>  <subsites>  (882) 
1 - Active Site

>  <HIPPO Compound ID>  (882) 
16329

>  <energy_score>  (882) 
-12.475706

>  <fragmenstein_mode>  (882) 
expansion

>  <scratch_subdir>  (882) 
/opt/xchem-fragalysis-2/maxwin/BulkDock/SCRATCH/512211/C4790-P329

>  <smiles>  (882) 
C1=C(c2cn[nH]c2)CCC1

>  <alias>  (882) 
C4790-P329

>  <ref_mols>  (882) 
A4374b,A0556a

>  <inspiration_score>  (882) 
None

>  <tags>  (882) 
BulkDock Fragalysis export,fragmenstein_placed,openbind_a71ev2a_c1_knitwork_impure,openbind_a71ev2a_c1_scaffolds

>  <fragmenstein_outcome>  (882) 
acceptable

>  <fragmenstein_error>  (882) 


>  <distance_score>  (882) 
0.962467

>  <inchikey>  (882) 
YGPOMGOFWDKROT-UHFFFAOYSA-N

>  <name>  (882) 
C4790-P329

>  <HIPPO Pose ID>  (882) 
430928

>  <Energy>  (882) 
12.308217

>  <exports>  (882) 
['/opt/xchem-fragalysis-2/maxwin/BulkDock/OUTPUTS/openbind_a71ev2a_c1_knitwork_impure_165VXJF.sdf', '/opt/xchem-fragalysis-2/maxwin/BulkDock/OUTPUTS/openbind_a71ev2a_c1_knitwork_impure_1B07QS4.sdf', '/opt/xchem-fragalysis-2/maxwin/BulkDock/OUTPUTS/openbind_a71ev2a_c1_knitwork_impure_1B07X5R.sdf', '/opt/xchem-fragalysis-2/maxwin/openbind-hippo/a71ev2a/openbind_a71ev2a_c1_scaffold_products.sdf', '/opt/xchem-fragalysis-2/maxwin/openbind-hippo/a71ev2a/cycle_01/bulkdock/openbind_a71ev2a_c1_scaffold_products.sdf', '/opt/xchem-fragalysis-2/maxwin/openbind-hippo/a71ev2a/cycle_01/bulkdock/openbind_a71ev2a_c1_scaffolds.sdf']

>  <fragmenstein_runtime>  (882) 
2.095795

$$$$
C10667-P136
     RDKit          3D

 14 14  0  0  0  0  0  0  0  0999 V2000
   10.9600   14.6008   25.1448 C   0  0  0  0  0  0  0  0  0  0  0  0
   11.0787   13.4539   24.1526 C   0  0  0  0  0  0  0  0  0  0  0  0
   11.3799   13.9905   22.7564 C   0  0  0  0  0  0  0  0  0  0  0  0
    9.7779   12.6519   24.2041 C   0  0  0  0  0  0  0  0  0  0  0  0
    9.8885   11.3044   23.5398 C   0  0  0  0  0  0  0  0  0  0  0  0
    8.6727   10.4027   23.6214 C   0  0  1  0  0  0  0  0  0  0  0  0
    9.1126    9.0384   23.0525 C   0  0  0  0  0  0  0  0  0  0  0  0
    7.8779   10.1826   24.9095 C   0  0  0  0  0  0  0  0  0  0  0  0
    7.7506    9.0416   25.3473 O   0  0  0  0  0  0  0  0  0  0  0  0
    7.1569   11.2448   25.5715 C   0  0  0  0  0  0  0  0  0  0  0  0
    6.7920   12.5451   25.3030 C   0  0  0  0  0  0  0  0  0  0  0  0
    6.0917   13.0833   26.3572 N   0  0  0  0  0  0  0  0  0  0  0  0
    5.9691   12.0773   27.1846 C   0  0  0  0  0  0  0  0  0  0  0  0
    6.5834   10.9365   26.7901 O   0  0  0  0  0  0  0  0  0  0  0  0
  1  2  1  0
  2  3  1  0
  2  4  1  0
  4  5  1  0
  5  6  1  0
  6  7  1  1
  6  8  1  0
  8  9  2  0
  8 10  1  0
 10 11  2  0
 11 12  1  0
 12 13  2  0
 13 14  1  0
 14 10  1  0
M  END
>  <ref_pdb>  (883) 
A2846a

>  <subsites>  (883) 
1 - Active Site

>  <HIPPO Compound ID>  (883) 
29152

>  <energy_score>  (883) 
-19.364944

>  <fragmenstein_mode>  (883) 
expansion

>  <scratch_subdir>  (883) 
/opt/xchem-fragalysis-2/maxwin/BulkDock/SCRATCH/512211/C10667-P136

>  <smiles>  (883) 
CC(C)CC[C@@H](C)C(=O)c1cnco1

>  <alias>  (883) 
C10667-P136

>  <ref_mols>  (883) 
A2846a,A1775a

>  <inspiration_score>  (883) 
None

>  <tags>  (883) 
BulkDock Fragalysis export,fragmenstein_placed,openbind_a71ev2a_c1_knitwork_impure,openbind_a71ev2a_c1_scaffolds

>  <fragmenstein_outcome>  (883) 
acceptable

>  <fragmenstein_error>  (883) 


>  <distance_score>  (883) 
0.887198

>  <inchikey>  (883) 
RHLZBBZPBAUQBC-UHFFFAOYSA-N

>  <name>  (883) 
C10667-P136

>  <HIPPO Pose ID>  (883) 
431026

>  <Energy>  (883) 
42.593778

>  <exports>  (883) 
['/opt/xchem-fragalysis-2/maxwin/BulkDock/OUTPUTS/openbind_a71ev2a_c1_knitwork_impure_165VXJF.sdf', '/opt/xchem-fragalysis-2/maxwin/BulkDock/OUTPUTS/openbind_a71ev2a_c1_knitwork_impure_1B07QS4.sdf', '/opt/xchem-fragalysis-2/maxwin/BulkDock/OUTPUTS/openbind_a71ev2a_c1_knitwork_impure_1B07X5R.sdf', '/opt/xchem-fragalysis-2/maxwin/openbind-hippo/a71ev2a/openbind_a71ev2a_c1_scaffold_products.sdf', '/opt/xchem-fragalysis-2/maxwin/openbind-hippo/a71ev2a/cycle_01/bulkdock/openbind_a71ev2a_c1_scaffold_products.sdf', '/opt/xchem-fragalysis-2/maxwin/openbind-hippo/a71ev2a/cycle_01/bulkdock/openbind_a71ev2a_c1_scaffolds.sdf']

>  <fragmenstein_runtime>  (883) 
1.449908

$$$$
C7479-P317
     RDKit          3D

 23 24  0  0  0  0  0  0  0  0999 V2000
    3.4735   12.2774   18.1563 C   0  0  0  0  0  0  0  0  0  0  0  0
    3.4023   12.4377   19.6743 C   0  0  0  0  0  0  0  0  0  0  0  0
    2.4374   11.4196   20.2795 C   0  0  0  0  0  0  0  0  0  0  0  0
    3.0292   13.8174   20.0643 C   0  0  0  0  0  0  0  0  0  0  0  0
    2.0418   14.4053   19.3280 O   0  0  0  0  0  0  0  0  0  0  0  0
    1.9354   15.6467   19.8500 C   0  0  0  0  0  0  0  0  0  0  0  0
    2.7363   15.9004   20.8633 N   0  0  0  0  0  0  0  0  0  0  0  0
    3.4188   14.7129   21.0458 C   0  0  0  0  0  0  0  0  0  0  0  0
    4.3762   14.5331   22.1802 C   0  0  0  0  0  0  0  0  0  0  0  0
    5.5529   15.3594   21.9346 N   0  0  0  0  0  0  0  0  0  0  0  0
    7.0417   14.7259   22.3602 S   0  0  0  0  0  0  0  0  0  0  0  0
    6.9387   13.3345   21.9431 O   0  0  0  0  0  0  0  0  0  0  0  0
    7.9519   15.5241   21.5661 O   0  0  0  0  0  0  0  0  0  0  0  0
    6.9589   14.9895   23.8683 N   0  0  0  0  0  0  0  0  0  0  0  0
    8.3264   14.8232   24.5569 S   0  0  2  0  0  0  0  0  0  0  0  0
    8.0955   15.3790   26.2325 C   0  0  0  0  0  0  0  0  0  0  0  0
    9.5475   15.4612   24.1094 O   0  0  0  0  0  0  0  0  0  0  0  0
    8.7344   13.0875   24.8152 C   0  0  0  0  0  0  0  0  0  0  0  0
    9.5254   12.5356   23.6353 C   0  0  0  0  0  0  0  0  0  0  0  0
    9.8028   11.0498   23.7102 C   0  0  0  0  0  0  0  0  0  0  0  0
    8.7546   10.1640   24.3477 C   0  0  0  0  0  0  0  0  0  0  0  0
    7.8909   10.8045   25.4174 C   0  0  0  0  0  0  0  0  0  0  0  0
    7.5110   12.2415   25.1259 C   0  0  0  0  0  0  0  0  0  0  0  0
  1  2  1  0
  2  3  1  0
  2  4  1  0
  4  5  1  0
  5  6  1  0
  6  7  2  0
  7  8  1  0
  8  9  1  0
  9 10  1  0
 10 11  1  0
 11 12  2  0
 11 13  2  0
 11 14  1  0
 14 15  2  0
 15 16  1  1
 15 17  2  0
 15 18  1  0
 18 19  1  0
 19 20  1  0
 20 21  1  0
 21 22  1  0
 22 23  1  0
  8  4  2  0
 23 18  1  0
M  END
>  <ref_pdb>  (884) 
A4343b

>  <subsites>  (884) 
1 - Active Site

>  <HIPPO Compound ID>  (884) 
22223

>  <energy_score>  (884) 
-238.549754

>  <fragmenstein_mode>  (884) 
expansion

>  <scratch_subdir>  (884) 
/opt/xchem-fragalysis-2/maxwin/BulkDock/SCRATCH/512211/C7479-P317

>  <smiles>  (884) 
CC(C)c1ocnc1CNS(=O)(=O)N=[S@](C)(=O)C1CCCCC1

>  <alias>  (884) 
C7479-P317

>  <ref_mols>  (884) 
A3623a,A4343b

>  <inspiration_score>  (884) 
None

>  <tags>  (884) 
BulkDock Fragalysis export,fragmenstein_placed,openbind_a71ev2a_c1_knitwork_impure,openbind_a71ev2a_c1_scaffolds

>  <fragmenstein_outcome>  (884) 
acceptable

>  <fragmenstein_error>  (884) 


>  <distance_score>  (884) 
0.936971

>  <inchikey>  (884) 
ZFTJJBVPUXZCMY-UHFFFAOYSA-N

>  <name>  (884) 
C7479-P317

>  <HIPPO Pose ID>  (884) 
431813

>  <Energy>  (884) 
-242.104021

>  <exports>  (884) 
['/opt/xchem-fragalysis-2/maxwin/BulkDock/OUTPUTS/openbind_a71ev2a_c1_knitwork_impure_165VXJF.sdf', '/opt/xchem-fragalysis-2/maxwin/BulkDock/OUTPUTS/openbind_a71ev2a_c1_knitwork_impure_1B07QS4.sdf', '/opt/xchem-fragalysis-2/maxwin/BulkDock/OUTPUTS/openbind_a71ev2a_c1_knitwork_impure_1B07X5R.sdf', '/opt/xchem-fragalysis-2/maxwin/openbind-hippo/a71ev2a/openbind_a71ev2a_c1_scaffold_products.sdf', '/opt/xchem-fragalysis-2/maxwin/openbind-hippo/a71ev2a/cycle_01/bulkdock/openbind_a71ev2a_c1_scaffold_products.sdf', '/opt/xchem-fragalysis-2/maxwin/openbind-hippo/a71ev2a/cycle_01/bulkdock/openbind_a71ev2a_c1_scaffolds.sdf']

>  <fragmenstein_runtime>  (884) 
4.114756

$$$$
C1405-P176
     RDKit          3D

 18 18  0  0  0  0  0  0  0  0999 V2000
   12.2362   13.2999   23.8157 N   0  0  0  0  0  0  0  0  0  0  0  0
   12.1089   13.8746   22.8144 C   0  0  0  0  0  0  0  0  0  0  0  0
   11.9958   14.5129   21.5030 C   0  0  0  0  0  0  0  0  0  0  0  0
   10.5865   14.9799   21.1378 C   0  0  2  0  0  0  0  0  0  0  0  0
    9.5455   14.1625   21.7935 N   0  0  0  0  0  0  0  0  0  0  0  0
    9.1479   14.0483   23.2901 C   0  0  0  0  0  0  0  0  0  0  0  0
    9.6324   14.5240   24.2397 O   0  0  0  0  0  0  0  0  0  0  0  0
    7.9927   13.0596   23.3900 C   0  0  0  0  0  0  0  0  0  0  0  0
    7.5227   12.9245   24.8547 C   0  0  0  0  0  0  0  0  0  0  0  0
    7.0275   11.5114   25.1658 C   0  0  0  0  0  0  0  0  0  0  0  0
    6.4024   11.4216   26.5545 C   0  0  0  0  0  0  0  0  0  0  0  0
    5.3736   12.4290   26.7934 N   0  0  0  0  0  0  0  0  0  0  0  0
    5.9062   13.7811   26.5985 C   0  0  0  0  0  0  0  0  0  0  0  0
    6.4444   13.9663   25.1829 C   0  0  0  0  0  0  0  0  0  0  0  0
   10.5248   14.9967   19.5981 C   0  0  0  0  0  0  0  0  0  0  0  0
   10.6319   13.7582   19.0842 F   0  0  0  0  0  0  0  0  0  0  0  0
    9.3814   15.5569   19.1658 F   0  0  0  0  0  0  0  0  0  0  0  0
   11.5354   15.6641   19.0407 F   0  0  0  0  0  0  0  0  0  0  0  0
  1  2  3  0
  2  3  1  0
  4  3  1  6
  4  5  1  0
  5  6  1  0
  6  7  2  0
  6  8  1  0
  8  9  1  0
  9 10  1  0
 10 11  1  0
 11 12  1  0
 12 13  1  0
 13 14  1  0
  4 15  1  0
 15 16  1  0
 15 17  1  0
 15 18  1  0
 14  9  1  0
M  END
>  <ref_pdb>  (885) 
A3392a

>  <subsites>  (885) 
1 - Active Site

>  <HIPPO Compound ID>  (885) 
9207

>  <energy_score>  (885) 
-0.355729

>  <fragmenstein_mode>  (885) 
expansion

>  <scratch_subdir>  (885) 
/opt/xchem-fragalysis-2/maxwin/BulkDock/SCRATCH/512211/C1405-P176

>  <smiles>  (885) 
N#CC[C@H](NC(=O)CC1CCNCC1)C(F)(F)F

>  <alias>  (885) 
C1405-P176

>  <ref_mols>  (885) 
A3392a,A4706a

>  <inspiration_score>  (885) 
None

>  <tags>  (885) 
BulkDock Fragalysis export,fragmenstein_placed,openbind_a71ev2a_c1_knitwork_impure,openbind_a71ev2a_c1_scaffolds

>  <fragmenstein_outcome>  (885) 
acceptable

>  <fragmenstein_error>  (885) 


>  <distance_score>  (885) 
0.888505

>  <inchikey>  (885) 
RHQJYRUFYUHRDN-UHFFFAOYSA-N

>  <name>  (885) 
C1405-P176

>  <HIPPO Pose ID>  (885) 
432463

>  <Energy>  (885) 
38.958914

>  <exports>  (885) 
['/opt/xchem-fragalysis-2/maxwin/BulkDock/OUTPUTS/openbind_a71ev2a_c1_knitwork_impure_165VXJF.sdf', '/opt/xchem-fragalysis-2/maxwin/BulkDock/OUTPUTS/openbind_a71ev2a_c1_knitwork_impure_1B07QS4.sdf', '/opt/xchem-fragalysis-2/maxwin/BulkDock/OUTPUTS/openbind_a71ev2a_c1_knitwork_impure_1B07X5R.sdf', '/opt/xchem-fragalysis-2/maxwin/openbind-hippo/a71ev2a/openbind_a71ev2a_c1_scaffold_products.sdf', '/opt/xchem-fragalysis-2/maxwin/openbind-hippo/a71ev2a/cycle_01/bulkdock/openbind_a71ev2a_c1_scaffold_products.sdf', '/opt/xchem-fragalysis-2/maxwin/openbind-hippo/a71ev2a/cycle_01/bulkdock/openbind_a71ev2a_c1_scaffolds.sdf']

>  <fragmenstein_runtime>  (885) 
7.959171

$$$$
C3803-P457
     RDKit          3D

 11 12  0  0  0  0  0  0  0  0999 V2000
    7.1603   10.2118   25.1484 C   0  0  0  0  0  0  0  0  0  0  0  0
    7.9984    9.3180   24.6323 N   0  0  0  0  0  0  0  0  0  0  0  0
    8.8961   10.0611   23.9665 N   0  0  0  0  0  0  0  0  0  0  0  0
    8.6447   11.4002   24.0578 C   0  0  0  0  0  0  0  0  0  0  0  0
    7.5087   11.5451   24.8347 C   0  0  0  0  0  0  0  0  0  0  0  0
    6.7838   12.7993   25.2242 C   0  0  1  0  0  0  0  0  0  0  0  0
    5.7316   12.5579   26.3264 C   0  0  0  0  0  0  0  0  0  0  0  0
    5.0972   13.8605   26.8081 C   0  0  0  0  0  0  0  0  0  0  0  0
    6.1605   14.8951   27.1571 C   0  0  0  0  0  0  0  0  0  0  0  0
    7.1696   15.0522   26.0232 C   0  0  0  0  0  0  0  0  0  0  0  0
    7.7849   13.7724   25.6800 N   0  0  0  0  0  0  0  0  0  0  0  0
  1  2  2  0
  2  3  1  0
  3  4  1  0
  4  5  2  0
  6  5  1  1
  6  7  1  0
  7  8  1  0
  8  9  1  0
  9 10  1  0
 10 11  1  0
  5  1  1  0
 11  6  1  0
M  END
>  <ref_pdb>  (886) 
A4751a

>  <subsites>  (886) 
1 - Active Site

>  <HIPPO Compound ID>  (886) 
8906

>  <energy_score>  (886) 
-20.39798

>  <fragmenstein_mode>  (886) 
expansion

>  <scratch_subdir>  (886) 
/opt/xchem-fragalysis-2/maxwin/BulkDock/SCRATCH/512211/C3803-P457

>  <smiles>  (886) 
c1n[nH]cc1[C@H]1CCCCN1

>  <alias>  (886) 
C3803-P457

>  <ref_mols>  (886) 
A4751a,A0556a

>  <inspiration_score>  (886) 
None

>  <tags>  (886) 
BulkDock Fragalysis export,fragmenstein_placed,openbind_a71ev2a_c1_knitwork_impure,openbind_a71ev2a_c1_scaffolds

>  <fragmenstein_outcome>  (886) 
acceptable

>  <fragmenstein_error>  (886) 


>  <distance_score>  (886) 
0.966999

>  <inchikey>  (886) 
WSZYMCQJXAPKIF-UHFFFAOYSA-N

>  <name>  (886) 
C3803-P457

>  <HIPPO Pose ID>  (886) 
432569

>  <Energy>  (886) 
-0.678288

>  <exports>  (886) 
['/opt/xchem-fragalysis-2/maxwin/BulkDock/OUTPUTS/openbind_a71ev2a_c1_knitwork_impure_165VXJF.sdf', '/opt/xchem-fragalysis-2/maxwin/BulkDock/OUTPUTS/openbind_a71ev2a_c1_knitwork_impure_1B07QS4.sdf', '/opt/xchem-fragalysis-2/maxwin/BulkDock/OUTPUTS/openbind_a71ev2a_c1_knitwork_impure_1B07X5R.sdf', '/opt/xchem-fragalysis-2/maxwin/openbind-hippo/a71ev2a/openbind_a71ev2a_c1_scaffold_products.sdf', '/opt/xchem-fragalysis-2/maxwin/openbind-hippo/a71ev2a/cycle_01/bulkdock/openbind_a71ev2a_c1_scaffold_products.sdf', '/opt/xchem-fragalysis-2/maxwin/openbind-hippo/a71ev2a/cycle_01/bulkdock/openbind_a71ev2a_c1_scaffolds.sdf']

>  <fragmenstein_runtime>  (886) 
0.911528

$$$$
C4784-P457
     RDKit          3D

  9 10  0  0  0  0  0  0  0  0999 V2000
    7.2515   10.3225   25.1167 C   0  0  0  0  0  0  0  0  0  0  0  0
    7.3735   11.6915   25.1771 C   0  0  0  0  0  0  0  0  0  0  0  0
    8.5599   11.9730   24.4748 C   0  0  0  0  0  0  0  0  0  0  0  0
    9.1415   13.4058   24.2809 C   0  0  0  0  0  0  0  0  0  0  0  0
   10.3760   13.5289   23.3473 C   0  0  0  0  0  0  0  0  0  0  0  0
    9.7486   14.8151   22.7886 C   0  0  0  0  0  0  0  0  0  0  0  0
    8.3822   14.2760   23.2529 C   0  0  0  0  0  0  0  0  0  0  0  0
    9.1392   10.8670   24.0096 N   0  0  0  0  0  0  0  0  0  0  0  0
    8.3194    9.8769   24.3888 N   0  0  0  0  0  0  0  0  0  0  0  0
  1  2  2  0
  2  3  1  0
  3  4  1  0
  4  5  1  0
  5  6  1  0
  6  7  1  0
  3  8  2  0
  8  9  1  0
  9  1  1  0
  7  4  1  0
M  END
>  <ref_pdb>  (887) 
A4751a

>  <subsites>  (887) 
1 - Active Site

>  <HIPPO Compound ID>  (887) 
2514

>  <energy_score>  (887) 
-17.012317

>  <fragmenstein_mode>  (887) 
expansion

>  <scratch_subdir>  (887) 
/opt/xchem-fragalysis-2/maxwin/BulkDock/SCRATCH/512211/C4784-P457

>  <smiles>  (887) 
c1cc(C2CCC2)n[nH]1

>  <alias>  (887) 
C4784-P457

>  <ref_mols>  (887) 
A4751a,A0556a

>  <inspiration_score>  (887) 
None

>  <tags>  (887) 
BulkDock Fragalysis export,fragmenstein_placed,openbind_a71ev2a_c1_knitwork_impure,openbind_a71ev2a_c1_scaffolds

>  <fragmenstein_outcome>  (887) 
acceptable

>  <fragmenstein_error>  (887) 


>  <distance_score>  (887) 
0.958272

>  <inchikey>  (887) 
OBMSQRRNSRJRBN-UHFFFAOYSA-N

>  <name>  (887) 
C4784-P457

>  <HIPPO Pose ID>  (887) 
432578

>  <Energy>  (887) 
17.551307

>  <exports>  (887) 
['/opt/xchem-fragalysis-2/maxwin/BulkDock/OUTPUTS/openbind_a71ev2a_c1_knitwork_impure_165VXJF.sdf', '/opt/xchem-fragalysis-2/maxwin/BulkDock/OUTPUTS/openbind_a71ev2a_c1_knitwork_impure_1B07QS4.sdf', '/opt/xchem-fragalysis-2/maxwin/BulkDock/OUTPUTS/openbind_a71ev2a_c1_knitwork_impure_1B07X5R.sdf', '/opt/xchem-fragalysis-2/maxwin/openbind-hippo/a71ev2a/openbind_a71ev2a_c1_scaffold_products.sdf', '/opt/xchem-fragalysis-2/maxwin/openbind-hippo/a71ev2a/cycle_01/bulkdock/openbind_a71ev2a_c1_scaffold_products.sdf', '/opt/xchem-fragalysis-2/maxwin/openbind-hippo/a71ev2a/cycle_01/bulkdock/openbind_a71ev2a_c1_scaffolds.sdf']

>  <fragmenstein_runtime>  (887) 
7.980087

$$$$
C961-P278
     RDKit          3D

 18 20  0  0  0  0  0  0  0  0999 V2000
   25.8870   12.7000   -2.3073 O   0  0  0  0  0  0  0  0  0  0  0  0
   24.9571   12.2655   -1.7454 C   0  0  0  0  0  0  0  0  0  0  0  0
   23.5980   11.7398   -2.2988 N   0  0  0  0  0  0  0  0  0  0  0  0
   23.1718   11.5645   -3.5876 N   0  0  0  0  0  0  0  0  0  0  0  0
   22.7346   10.2959   -3.8614 C   0  0  0  0  0  0  0  0  0  0  0  0
   22.2523    9.4390   -3.0177 N   0  0  0  0  0  0  0  0  0  0  0  0
   21.9828    8.1646   -3.7116 C   0  0  0  0  0  0  0  0  0  0  0  0
   21.7295    8.4213   -5.1863 C   0  0  0  0  0  0  0  0  0  0  0  0
   22.8303    9.8010   -5.5364 S   0  0  0  0  0  0  0  0  0  0  0  0
   24.9386   12.0148   -0.2283 C   0  0  1  0  0  0  0  0  0  0  0  0
   26.3068   12.2912    0.4196 C   0  0  0  0  0  0  0  0  0  0  0  0
   26.2233   12.1254    1.9410 C   0  0  0  0  0  0  0  0  0  0  0  0
   25.2045   13.0892    2.5546 C   0  0  0  0  0  0  0  0  0  0  0  0
   24.0158   13.2310    1.7471 N   0  0  0  0  0  0  0  0  0  0  0  0
   22.8571   13.8542    2.0743 C   0  0  0  0  0  0  0  0  0  0  0  0
   22.0368   13.8042    1.0486 N   0  0  0  0  0  0  0  0  0  0  0  0
   22.6755   13.1308    0.0304 N   0  0  0  0  0  0  0  0  0  0  0  0
   23.8788   12.8070    0.4540 C   0  0  0  0  0  0  0  0  0  0  0  0
  1  2  2  0
  2  3  1  0
  3  4  1  0
  4  5  1  0
  5  6  2  0
  6  7  1  0
  7  8  1  0
  8  9  1  0
 10  2  1  6
 10 11  1  0
 11 12  1  0
 12 13  1  0
 13 14  1  0
 14 15  1  0
 15 16  2  0
 16 17  1  0
 17 18  2  0
  9  5  1  0
 18 10  1  0
 18 14  1  0
M  END
>  <ref_pdb>  (888) 
A4035a

>  <subsites>  (888) 
1 - Active Site,6 - A0486/A/147/1

>  <HIPPO Compound ID>  (888) 
1238

>  <energy_score>  (888) 
-51.439935

>  <fragmenstein_mode>  (888) 
expansion

>  <scratch_subdir>  (888) 
/opt/xchem-fragalysis-2/maxwin/BulkDock/SCRATCH/512211/C961-P278

>  <smiles>  (888) 
O=C(NNC1=NCCS1)[C@H]1CCCn2cnnc21

>  <alias>  (888) 
C961-P278

>  <ref_mols>  (888) 
A0239a,A4035a

>  <inspiration_score>  (888) 
None

>  <tags>  (888) 
BulkDock Fragalysis export,fragmenstein_placed,openbind_a71ev2a_c1_knitwork_impure,openbind_a71ev2a_c1_scaffolds

>  <fragmenstein_outcome>  (888) 
acceptable

>  <fragmenstein_error>  (888) 


>  <distance_score>  (888) 
0.452137

>  <inchikey>  (888) 
GFCHJLUTXGTXAR-UHFFFAOYSA-N

>  <name>  (888) 
C961-P278

>  <HIPPO Pose ID>  (888) 
432630

>  <Energy>  (888) 
28.198691

>  <exports>  (888) 
['/opt/xchem-fragalysis-2/maxwin/BulkDock/OUTPUTS/openbind_a71ev2a_c1_knitwork_impure_165VXJF.sdf', '/opt/xchem-fragalysis-2/maxwin/BulkDock/OUTPUTS/openbind_a71ev2a_c1_knitwork_impure_1B07QS4.sdf', '/opt/xchem-fragalysis-2/maxwin/BulkDock/OUTPUTS/openbind_a71ev2a_c1_knitwork_impure_1B07X5R.sdf', '/opt/xchem-fragalysis-2/maxwin/openbind-hippo/a71ev2a/openbind_a71ev2a_c1_scaffold_products.sdf', '/opt/xchem-fragalysis-2/maxwin/openbind-hippo/a71ev2a/cycle_01/bulkdock/openbind_a71ev2a_c1_scaffold_products.sdf', '/opt/xchem-fragalysis-2/maxwin/openbind-hippo/a71ev2a/cycle_01/bulkdock/openbind_a71ev2a_c1_scaffolds.sdf']

>  <fragmenstein_runtime>  (888) 
1.474175

$$$$
C11236-P276
     RDKit          3D

 22 23  0  0  0  0  0  0  0  0999 V2000
    3.6883   12.6811   17.5078 C   0  0  0  0  0  0  0  0  0  0  0  0
    2.6114   13.4845   18.1880 C   0  0  0  0  0  0  0  0  0  0  0  0
    2.8885   13.5728   19.6294 C   0  0  0  0  0  0  0  0  0  0  0  0
    3.8800   14.1882   20.2385 N   0  0  0  0  0  0  0  0  0  0  0  0
    3.6336   13.9844   21.5822 C   0  0  0  0  0  0  0  0  0  0  0  0
    4.4563   14.5664   22.6896 C   0  0  0  0  0  0  0  0  0  0  0  0
    5.5904   15.3492   22.1888 N   0  0  0  0  0  0  0  0  0  0  0  0
    7.0957   14.6345   22.3521 S   0  0  0  0  0  0  0  0  0  0  0  0
    6.8719   13.2658   21.9165 O   0  0  0  0  0  0  0  0  0  0  0  0
    7.9189   15.4433   21.4779 O   0  0  0  0  0  0  0  0  0  0  0  0
    7.1821   14.8679   23.8693 N   0  0  0  0  0  0  0  0  0  0  0  0
    8.5382   14.4547   24.4581 S   0  0  2  0  0  0  0  0  0  0  0  0
    8.5325   15.0944   26.1233 C   0  0  0  0  0  0  0  0  0  0  0  0
    9.8185   14.8425   23.9071 O   0  0  0  0  0  0  0  0  0  0  0  0
    8.6085   12.6709   24.7563 C   0  0  0  0  0  0  0  0  0  0  0  0
    9.3463   11.9505   23.6315 C   0  0  0  0  0  0  0  0  0  0  0  0
    9.3063   10.4259   23.6658 C   0  0  0  0  0  0  0  0  0  0  0  0
    8.0766    9.7883   24.2844 C   0  0  0  0  0  0  0  0  0  0  0  0
    7.3389   10.5865   25.3429 C   0  0  0  0  0  0  0  0  0  0  0  0
    7.2401   12.0672   25.0362 C   0  0  0  0  0  0  0  0  0  0  0  0
    2.4683   13.2589   21.6995 C   0  0  0  0  0  0  0  0  0  0  0  0
    1.9862   12.9853   20.4628 O   0  0  0  0  0  0  0  0  0  0  0  0
  1  2  1  0
  2  3  1  0
  3  4  2  0
  4  5  1  0
  5  6  1  0
  6  7  1  0
  7  8  1  0
  8  9  2  0
  8 10  2  0
  8 11  1  0
 11 12  2  0
 12 13  1  1
 12 14  2  0
 12 15  1  0
 15 16  1  0
 16 17  1  0
 17 18  1  0
 18 19  1  0
 19 20  1  0
  5 21  2  0
 21 22  1  0
 22  3  1  0
 20 15  1  0
M  END
>  <ref_pdb>  (889) 
A4032a

>  <subsites>  (889) 
1 - Active Site

>  <HIPPO Compound ID>  (889) 
7825

>  <energy_score>  (889) 
-77.152583

>  <fragmenstein_mode>  (889) 
expansion

>  <scratch_subdir>  (889) 
/opt/xchem-fragalysis-2/maxwin/BulkDock/SCRATCH/512211/C11236-P276

>  <smiles>  (889) 
CCc1nc(CNS(=O)(=O)N=[S@](C)(=O)C2CCCCC2)co1

>  <alias>  (889) 
C11236-P276

>  <ref_mols>  (889) 
A3623a,A4032a

>  <inspiration_score>  (889) 
None

>  <tags>  (889) 
BulkDock Fragalysis export,fragmenstein_placed,openbind_a71ev2a_c1_knitwork_impure,openbind_a71ev2a_c1_scaffolds

>  <fragmenstein_outcome>  (889) 
acceptable

>  <fragmenstein_error>  (889) 


>  <distance_score>  (889) 
0.982364

>  <inchikey>  (889) 
HWPXHJBEHCQNEL-UHFFFAOYSA-N

>  <name>  (889) 
C11236-P276

>  <HIPPO Pose ID>  (889) 
432739

>  <Energy>  (889) 
-242.490901

>  <exports>  (889) 
['/opt/xchem-fragalysis-2/maxwin/BulkDock/OUTPUTS/openbind_a71ev2a_c1_knitwork_impure_165VXJF.sdf', '/opt/xchem-fragalysis-2/maxwin/BulkDock/OUTPUTS/openbind_a71ev2a_c1_knitwork_impure_1B07QS4.sdf', '/opt/xchem-fragalysis-2/maxwin/BulkDock/OUTPUTS/openbind_a71ev2a_c1_knitwork_impure_1B07X5R.sdf', '/opt/xchem-fragalysis-2/maxwin/openbind-hippo/a71ev2a/openbind_a71ev2a_c1_scaffold_products.sdf', '/opt/xchem-fragalysis-2/maxwin/openbind-hippo/a71ev2a/cycle_01/bulkdock/openbind_a71ev2a_c1_scaffold_products.sdf', '/opt/xchem-fragalysis-2/maxwin/openbind-hippo/a71ev2a/cycle_01/bulkdock/openbind_a71ev2a_c1_scaffolds.sdf']

>  <fragmenstein_runtime>  (889) 
2.776726

$$$$
C7646-P265
     RDKit          3D

 13 14  0  0  0  0  0  0  0  0999 V2000
    5.7710   15.8035   22.1971 N   0  0  0  0  0  0  0  0  0  0  0  0
    7.2297   15.0352   22.5011 S   0  0  0  0  0  0  0  0  0  0  0  0
    8.2569   15.8671   21.9272 O   0  0  0  0  0  0  0  0  0  0  0  0
    7.0467   13.6616   22.0829 O   0  0  0  0  0  0  0  0  0  0  0  0
    7.2887   15.1874   24.2822 C   0  0  0  0  0  0  0  0  0  0  0  0
    8.6459   14.8236   24.8803 C   0  0  0  0  0  0  0  0  0  0  0  0
    9.3361   13.5611   24.3485 C   0  0  0  0  0  0  0  0  0  0  0  0
    8.8355   12.2821   24.8145 N   0  0  0  0  0  0  0  0  0  0  0  0
    9.2181   11.1831   23.9079 C   0  0  0  0  0  0  0  0  0  0  0  0
    8.2827   10.0833   24.2874 C   0  0  1  0  0  0  0  0  0  0  0  0
    7.8767    9.7389   25.6858 C   0  0  0  0  0  0  0  0  0  0  0  0
    7.1150   10.7368   24.9430 C   0  0  1  0  0  0  0  0  0  0  0  0
    7.3962   12.1853   25.0570 C   0  0  0  0  0  0  0  0  0  0  0  0
  1  2  1  0
  2  3  2  0
  2  4  2  0
  2  5  1  0
  5  6  1  0
  6  7  1  0
  7  8  1  0
  8  9  1  0
 10  9  1  1
 10 11  1  0
 12 11  1  1
 12 13  1  0
 13  8  1  0
 12 10  1  0
M  END
>  <ref_pdb>  (890) 
A4012b

>  <subsites>  (890) 
1 - Active Site

>  <HIPPO Compound ID>  (890) 
934

>  <energy_score>  (890) 
-76.022721

>  <fragmenstein_mode>  (890) 
expansion

>  <scratch_subdir>  (890) 
/opt/xchem-fragalysis-2/maxwin/BulkDock/SCRATCH/512211/C7646-P265

>  <smiles>  (890) 
NS(=O)(=O)CCCN1C[C@H]2C[C@H]2C1

>  <alias>  (890) 
C7646-P265

>  <ref_mols>  (890) 
A4012b,A0719a

>  <inspiration_score>  (890) 
None

>  <tags>  (890) 
BulkDock Fragalysis export,fragmenstein_placed,openbind_a71ev2a_c1_knitwork_impure,openbind_a71ev2a_c1_scaffolds

>  <fragmenstein_outcome>  (890) 
acceptable

>  <fragmenstein_error>  (890) 


>  <distance_score>  (890) 
0.959994

>  <inchikey>  (890) 
UQJVNWDNXJUWRQ-UHFFFAOYSA-N

>  <name>  (890) 
C7646-P265

>  <HIPPO Pose ID>  (890) 
432953

>  <Energy>  (890) 
-54.829316

>  <exports>  (890) 
['/opt/xchem-fragalysis-2/maxwin/BulkDock/OUTPUTS/openbind_a71ev2a_c1_knitwork_impure_165VXJF.sdf', '/opt/xchem-fragalysis-2/maxwin/BulkDock/OUTPUTS/openbind_a71ev2a_c1_knitwork_impure_1B07QS4.sdf', '/opt/xchem-fragalysis-2/maxwin/BulkDock/OUTPUTS/openbind_a71ev2a_c1_knitwork_impure_1B07X5R.sdf', '/opt/xchem-fragalysis-2/maxwin/openbind-hippo/a71ev2a/openbind_a71ev2a_c1_scaffold_products.sdf', '/opt/xchem-fragalysis-2/maxwin/openbind-hippo/a71ev2a/cycle_01/bulkdock/openbind_a71ev2a_c1_scaffold_products.sdf', '/opt/xchem-fragalysis-2/maxwin/openbind-hippo/a71ev2a/cycle_01/bulkdock/openbind_a71ev2a_c1_scaffolds.sdf']

>  <fragmenstein_runtime>  (890) 
7.273142

$$$$
C7674-P265
     RDKit          3D

 13 14  0  0  0  0  0  0  0  0999 V2000
    5.4196   15.0019   21.8925 N   0  0  0  0  0  0  0  0  0  0  0  0
    6.9763   14.6160   22.4009 S   0  0  0  0  0  0  0  0  0  0  0  0
    7.8635   15.5458   21.7484 O   0  0  0  0  0  0  0  0  0  0  0  0
    7.0698   13.1978   22.1584 O   0  0  0  0  0  0  0  0  0  0  0  0
    6.8695   15.0138   24.1375 C   0  0  0  0  0  0  0  0  0  0  0  0
    8.2377   14.9896   24.8022 C   0  0  0  0  0  0  0  0  0  0  0  0
    8.5149   13.7046   25.5668 C   0  0  0  0  0  0  0  0  0  0  0  0
    8.4018   12.5044   24.7708 N   0  0  0  0  0  0  0  0  0  0  0  0
    9.5532   12.2584   23.8856 C   0  0  0  0  0  0  0  0  0  0  0  0
    9.4506   10.7650   23.5486 C   0  0  0  0  0  0  0  0  0  0  0  0
    8.7150   10.1261   24.6732 C   0  0  2  0  0  0  0  0  0  0  0  0
    7.2621   10.2601   25.0056 C   0  0  0  0  0  0  0  0  0  0  0  0
    8.2089   11.2550   25.5166 C   0  0  2  0  0  0  0  0  0  0  0  0
  1  2  1  0
  2  3  2  0
  2  4  2  0
  2  5  1  0
  5  6  1  0
  6  7  1  0
  7  8  1  0
  8  9  1  0
  9 10  1  0
 11 10  1  6
 11 12  1  0
 13 12  1  6
 13  8  1  0
 13 11  1  0
M  END
>  <ref_pdb>  (891) 
A4012b

>  <subsites>  (891) 
1 - Active Site

>  <HIPPO Compound ID>  (891) 
1455

>  <energy_score>  (891) 
-74.251704

>  <fragmenstein_mode>  (891) 
expansion

>  <scratch_subdir>  (891) 
/opt/xchem-fragalysis-2/maxwin/BulkDock/SCRATCH/512211/C7674-P265

>  <smiles>  (891) 
NS(=O)(=O)CCCN1CC[C@@H]2C[C@@H]21

>  <alias>  (891) 
C7674-P265

>  <ref_mols>  (891) 
A4012b,A0719a

>  <inspiration_score>  (891) 
None

>  <tags>  (891) 
BulkDock Fragalysis export,fragmenstein_placed,openbind_a71ev2a_c1_knitwork_impure,openbind_a71ev2a_c1_scaffolds

>  <fragmenstein_outcome>  (891) 
acceptable

>  <fragmenstein_error>  (891) 


>  <distance_score>  (891) 
0.950629

>  <inchikey>  (891) 
ILAOIAQOAHWDBJ-UHFFFAOYSA-N

>  <name>  (891) 
C7674-P265

>  <HIPPO Pose ID>  (891) 
432964

>  <Energy>  (891) 
-69.022498

>  <exports>  (891) 
['/opt/xchem-fragalysis-2/maxwin/BulkDock/OUTPUTS/openbind_a71ev2a_c1_knitwork_impure_165VXJF.sdf', '/opt/xchem-fragalysis-2/maxwin/BulkDock/OUTPUTS/openbind_a71ev2a_c1_knitwork_impure_1B07QS4.sdf', '/opt/xchem-fragalysis-2/maxwin/BulkDock/OUTPUTS/openbind_a71ev2a_c1_knitwork_impure_1B07X5R.sdf', '/opt/xchem-fragalysis-2/maxwin/openbind-hippo/a71ev2a/openbind_a71ev2a_c1_scaffold_products.sdf', '/opt/xchem-fragalysis-2/maxwin/openbind-hippo/a71ev2a/cycle_01/bulkdock/openbind_a71ev2a_c1_scaffold_products.sdf', '/opt/xchem-fragalysis-2/maxwin/openbind-hippo/a71ev2a/cycle_01/bulkdock/openbind_a71ev2a_c1_scaffolds.sdf']

>  <fragmenstein_runtime>  (891) 
2.833158

$$$$
C86465-P363
     RDKit          3D

 14 14  0  0  0  0  0  0  0  0999 V2000
    9.3249   11.3557   23.3271 C   0  0  0  0  0  0  0  0  0  0  0  0
    9.4706   12.2019   24.5656 C   0  0  0  0  0  0  0  0  0  0  0  0
    8.1581   12.1109   25.3636 C   0  0  0  0  0  0  0  0  0  0  0  0
   10.5902   11.6500   25.4005 C   0  0  0  0  0  0  0  0  0  0  0  0
    9.7697   13.6616   24.2198 C   0  0  0  0  0  0  0  0  0  0  0  0
   11.0774   13.8908   23.4525 C   0  0  0  0  0  0  0  0  0  0  0  0
   11.3371   15.3711   23.4097 C   0  0  0  0  0  0  0  0  0  0  0  0
   11.0685   16.0663   24.3933 O   0  0  0  0  0  0  0  0  0  0  0  0
   12.0099   15.9494   22.2049 C   0  0  0  0  0  0  0  0  0  0  0  0
   11.2775   15.6554   20.9604 C   0  0  0  0  0  0  0  0  0  0  0  0
   10.0162   16.1168   20.6419 C   0  0  0  0  0  0  0  0  0  0  0  0
    9.6989   15.7557   19.0115 S   0  0  0  0  0  0  0  0  0  0  0  0
   11.1786   14.9439   18.8875 C   0  0  0  0  0  0  0  0  0  0  0  0
   11.9137   14.9224   19.9728 N   0  0  0  0  0  0  0  0  0  0  0  0
  1  2  1  0
  2  3  1  0
  2  4  1  0
  2  5  1  0
  5  6  1  0
  6  7  1  0
  7  8  2  0
  7  9  1  0
  9 10  1  0
 10 11  2  0
 11 12  1  0
 12 13  1  0
 13 14  2  0
 14 10  1  0
M  END
>  <ref_pdb>  (892) 
A4445a

>  <subsites>  (892) 
1 - Active Site

>  <HIPPO Compound ID>  (892) 
6276

>  <energy_score>  (892) 
-64.76197

>  <fragmenstein_mode>  (892) 
expansion

>  <scratch_subdir>  (892) 
/opt/xchem-fragalysis-2/maxwin/BulkDock/SCRATCH/512211/C86465-P363

>  <smiles>  (892) 
CC(C)(C)CCC(=O)Cc1cscn1

>  <alias>  (892) 
C86465-P363

>  <ref_mols>  (892) 
A3306a,A4445a

>  <inspiration_score>  (892) 
None

>  <tags>  (892) 
BulkDock Fragalysis export,fragmenstein_placed,openbind_a71ev2a_c1_knitwork_impure,openbind_a71ev2a_c1_scaffolds

>  <fragmenstein_outcome>  (892) 
acceptable

>  <fragmenstein_error>  (892) 


>  <distance_score>  (892) 
0.883094

>  <inchikey>  (892) 
FOELTRWJVGYBGD-UHFFFAOYSA-N

>  <name>  (892) 
C86465-P363

>  <HIPPO Pose ID>  (892) 
433020

>  <Energy>  (892) 
34.765473

>  <exports>  (892) 
['/opt/xchem-fragalysis-2/maxwin/BulkDock/OUTPUTS/openbind_a71ev2a_c1_knitwork_impure_165VXJF.sdf', '/opt/xchem-fragalysis-2/maxwin/BulkDock/OUTPUTS/openbind_a71ev2a_c1_knitwork_impure_1B07QS4.sdf', '/opt/xchem-fragalysis-2/maxwin/BulkDock/OUTPUTS/openbind_a71ev2a_c1_knitwork_impure_1B07X5R.sdf', '/opt/xchem-fragalysis-2/maxwin/openbind-hippo/a71ev2a/openbind_a71ev2a_c1_scaffold_products.sdf', '/opt/xchem-fragalysis-2/maxwin/openbind-hippo/a71ev2a/cycle_01/bulkdock/openbind_a71ev2a_c1_scaffold_products.sdf', '/opt/xchem-fragalysis-2/maxwin/openbind-hippo/a71ev2a/cycle_01/bulkdock/openbind_a71ev2a_c1_scaffolds.sdf']

>  <fragmenstein_runtime>  (892) 
2.89149

$$$$
C10627-P494
     RDKit          3D

 13 13  0  0  0  0  0  0  0  0999 V2000
    8.3409   15.5049   25.5814 C   0  0  0  0  0  0  0  0  0  0  0  0
    8.5354   14.4896   24.4646 C   0  0  0  0  0  0  0  0  0  0  0  0
    7.2445   13.8749   23.8936 C   0  0  1  0  0  0  0  0  0  0  0  0
    6.1977   13.5877   24.9617 C   0  0  0  0  0  0  0  0  0  0  0  0
    6.7757   14.6081   22.6211 C   0  0  0  0  0  0  0  0  0  0  0  0
    7.3883   14.4139   21.5645 O   0  0  0  0  0  0  0  0  0  0  0  0
    5.6316   15.5954   22.6632 C   0  0  0  0  0  0  0  0  0  0  0  0
    4.0267   14.7790   22.6619 S   0  0  0  0  0  0  0  0  0  0  0  0
    3.7535   14.4844   20.9761 C   0  0  0  0  0  0  0  0  0  0  0  0
    3.0808   15.3172   20.2052 N   0  0  0  0  0  0  0  0  0  0  0  0
    2.9400   14.6266   19.0237 C   0  0  0  0  0  0  0  0  0  0  0  0
    3.5807   13.4186   19.1090 C   0  0  0  0  0  0  0  0  0  0  0  0
    4.1050   13.3131   20.3614 O   0  0  0  0  0  0  0  0  0  0  0  0
  1  2  1  0
  2  3  1  0
  3  4  1  1
  3  5  1  0
  5  6  2  0
  5  7  1  0
  7  8  1  0
  8  9  1  0
  9 10  2  0
 10 11  1  0
 11 12  2  0
 12 13  1  0
 13  9  1  0
M  END
>  <ref_pdb>  (893) 
A4874a

>  <subsites>  (893) 
1 - Active Site

>  <HIPPO Compound ID>  (893) 
20940

>  <energy_score>  (893) 
-24.749611

>  <fragmenstein_mode>  (893) 
expansion

>  <scratch_subdir>  (893) 
/opt/xchem-fragalysis-2/maxwin/BulkDock/SCRATCH/512211/C10627-P494

>  <smiles>  (893) 
CC[C@@H](C)C(=O)CSc1ncco1

>  <alias>  (893) 
C10627-P494

>  <ref_mols>  (893) 
A3623a,A4874a

>  <inspiration_score>  (893) 
None

>  <tags>  (893) 
BulkDock Fragalysis export,fragmenstein_placed,openbind_a71ev2a_c1_knitwork_impure,openbind_a71ev2a_c1_scaffolds

>  <fragmenstein_outcome>  (893) 
acceptable

>  <fragmenstein_error>  (893) 


>  <distance_score>  (893) 
0.93437

>  <inchikey>  (893) 
DRKPVRIBDAVVDE-UHFFFAOYSA-N

>  <name>  (893) 
C10627-P494

>  <HIPPO Pose ID>  (893) 
433057

>  <Energy>  (893) 
9.909742

>  <exports>  (893) 
['/opt/xchem-fragalysis-2/maxwin/BulkDock/OUTPUTS/openbind_a71ev2a_c1_knitwork_impure_165VXJF.sdf', '/opt/xchem-fragalysis-2/maxwin/BulkDock/OUTPUTS/openbind_a71ev2a_c1_knitwork_impure_1B07QS4.sdf', '/opt/xchem-fragalysis-2/maxwin/BulkDock/OUTPUTS/openbind_a71ev2a_c1_knitwork_impure_1B07X5R.sdf', '/opt/xchem-fragalysis-2/maxwin/openbind-hippo/a71ev2a/openbind_a71ev2a_c1_scaffold_products.sdf', '/opt/xchem-fragalysis-2/maxwin/openbind-hippo/a71ev2a/cycle_01/bulkdock/openbind_a71ev2a_c1_scaffold_products.sdf', '/opt/xchem-fragalysis-2/maxwin/openbind-hippo/a71ev2a/cycle_01/bulkdock/openbind_a71ev2a_c1_scaffolds.sdf']

>  <fragmenstein_runtime>  (893) 
1.154913

$$$$
C10655-P494
     RDKit          3D

 12 12  0  0  0  0  0  0  0  0999 V2000
    8.5610   14.2352   24.0795 C   0  0  0  0  0  0  0  0  0  0  0  0
    7.0706   14.5681   24.0110 C   0  0  0  0  0  0  0  0  0  0  0  0
    6.2952   13.5585   24.8623 C   0  0  0  0  0  0  0  0  0  0  0  0
    6.5825   14.5934   22.5494 C   0  0  0  0  0  0  0  0  0  0  0  0
    5.2845   15.3730   22.4151 C   0  0  0  0  0  0  0  0  0  0  0  0
    5.2838   16.6026   22.4853 O   0  0  0  0  0  0  0  0  0  0  0  0
    3.9991   14.6055   22.2732 C   0  0  0  0  0  0  0  0  0  0  0  0
    3.6454   14.4606   20.8502 C   0  0  0  0  0  0  0  0  0  0  0  0
    2.8758   15.2314   20.1073 N   0  0  0  0  0  0  0  0  0  0  0  0
    2.7926   14.5568   18.9136 C   0  0  0  0  0  0  0  0  0  0  0  0
    3.5436   13.4112   18.9716 C   0  0  0  0  0  0  0  0  0  0  0  0
    4.0987   13.3351   20.2140 O   0  0  0  0  0  0  0  0  0  0  0  0
  1  2  1  0
  2  3  1  0
  2  4  1  0
  4  5  1  0
  5  6  2  0
  5  7  1  0
  7  8  1  0
  8  9  2  0
  9 10  1  0
 10 11  2  0
 11 12  1  0
 12  8  1  0
M  END
>  <ref_pdb>  (894) 
A4874a

>  <subsites>  (894) 
1 - Active Site

>  <HIPPO Compound ID>  (894) 
6066

>  <energy_score>  (894) 
-27.43491

>  <fragmenstein_mode>  (894) 
expansion

>  <scratch_subdir>  (894) 
/opt/xchem-fragalysis-2/maxwin/BulkDock/SCRATCH/512211/C10655-P494

>  <smiles>  (894) 
CC(C)CC(=O)Cc1ncco1

>  <alias>  (894) 
C10655-P494

>  <ref_mols>  (894) 
A3623a,A4874a

>  <inspiration_score>  (894) 
None

>  <tags>  (894) 
BulkDock Fragalysis export,fragmenstein_placed,openbind_a71ev2a_c1_knitwork_impure,openbind_a71ev2a_c1_scaffolds

>  <fragmenstein_outcome>  (894) 
acceptable

>  <fragmenstein_error>  (894) 


>  <distance_score>  (894) 
0.841786

>  <inchikey>  (894) 
VSZVJPLKYBCKOO-UHFFFAOYSA-N

>  <name>  (894) 
C10655-P494

>  <HIPPO Pose ID>  (894) 
433071

>  <Energy>  (894) 
12.485304

>  <exports>  (894) 
['/opt/xchem-fragalysis-2/maxwin/BulkDock/OUTPUTS/openbind_a71ev2a_c1_knitwork_impure_165VXJF.sdf', '/opt/xchem-fragalysis-2/maxwin/BulkDock/OUTPUTS/openbind_a71ev2a_c1_knitwork_impure_1B07QS4.sdf', '/opt/xchem-fragalysis-2/maxwin/BulkDock/OUTPUTS/openbind_a71ev2a_c1_knitwork_impure_1B07X5R.sdf', '/opt/xchem-fragalysis-2/maxwin/openbind-hippo/a71ev2a/openbind_a71ev2a_c1_scaffold_products.sdf', '/opt/xchem-fragalysis-2/maxwin/openbind-hippo/a71ev2a/cycle_01/bulkdock/openbind_a71ev2a_c1_scaffold_products.sdf', '/opt/xchem-fragalysis-2/maxwin/openbind-hippo/a71ev2a/cycle_01/bulkdock/openbind_a71ev2a_c1_scaffolds.sdf']

>  <fragmenstein_runtime>  (894) 
1.899993

$$$$
C6791-P159
     RDKit          3D

 12 13  0  0  0  0  0  0  0  0999 V2000
    9.2331   10.1786   23.8187 C   0  0  0  0  0  0  0  0  0  0  0  0
    9.3622   11.4310   23.2505 C   0  0  0  0  0  0  0  0  0  0  0  0
    8.6287   12.4644   23.7872 C   0  0  0  0  0  0  0  0  0  0  0  0
    8.6613   13.7623   23.3143 N   0  0  0  0  0  0  0  0  0  0  0  0
    9.2097   14.7019   24.2906 C   0  0  0  0  0  0  0  0  0  0  0  0
   10.7345   14.7663   24.1898 C   0  0  0  0  0  0  0  0  0  0  0  0
   11.3235   15.3513   22.5669 S   0  0  0  0  0  0  0  0  0  0  0  0
   10.3384   14.2732   21.4966 C   0  0  0  0  0  0  0  0  0  0  0  0
    8.8715   14.1768   21.9153 C   0  0  0  0  0  0  0  0  0  0  0  0
    7.8408   12.2350   24.8543 N   0  0  0  0  0  0  0  0  0  0  0  0
    7.7653   10.9815   25.3237 C   0  0  0  0  0  0  0  0  0  0  0  0
    8.4317    9.9229   24.8603 N   0  0  0  0  0  0  0  0  0  0  0  0
  1  2  2  0
  2  3  1  0
  3  4  1  0
  4  5  1  0
  5  6  1  0
  6  7  1  0
  7  8  1  0
  8  9  1  0
  3 10  2  0
 10 11  1  0
 11 12  2  0
 12  1  1  0
  9  4  1  0
M  END
>  <ref_pdb>  (895) 
A3223a

>  <subsites>  (895) 
1 - Active Site

>  <HIPPO Compound ID>  (895) 
10320

>  <energy_score>  (895) 
-15.755838

>  <fragmenstein_mode>  (895) 
expansion

>  <scratch_subdir>  (895) 
/opt/xchem-fragalysis-2/maxwin/BulkDock/SCRATCH/512211/C6791-P159

>  <smiles>  (895) 
c1cc(N2CCSCC2)ncn1

>  <alias>  (895) 
C6791-P159

>  <ref_mols>  (895) 
A3223a,A1068a

>  <inspiration_score>  (895) 
None

>  <tags>  (895) 
BulkDock Fragalysis export,fragmenstein_placed,openbind_a71ev2a_c1_knitwork_impure,openbind_a71ev2a_c1_scaffolds

>  <fragmenstein_outcome>  (895) 
acceptable

>  <fragmenstein_error>  (895) 


>  <distance_score>  (895) 
0.832806

>  <inchikey>  (895) 
BUCJQHMDCWUKLE-UHFFFAOYSA-N

>  <name>  (895) 
C6791-P159

>  <HIPPO Pose ID>  (895) 
433185

>  <Energy>  (895) 
10.873922

>  <exports>  (895) 
['/opt/xchem-fragalysis-2/maxwin/BulkDock/OUTPUTS/openbind_a71ev2a_c1_knitwork_impure_165VXJF.sdf', '/opt/xchem-fragalysis-2/maxwin/BulkDock/OUTPUTS/openbind_a71ev2a_c1_knitwork_impure_1B07QS4.sdf', '/opt/xchem-fragalysis-2/maxwin/BulkDock/OUTPUTS/openbind_a71ev2a_c1_knitwork_impure_1B07X5R.sdf', '/opt/xchem-fragalysis-2/maxwin/openbind-hippo/a71ev2a/openbind_a71ev2a_c1_scaffold_products.sdf', '/opt/xchem-fragalysis-2/maxwin/openbind-hippo/a71ev2a/cycle_01/bulkdock/openbind_a71ev2a_c1_scaffold_products.sdf', '/opt/xchem-fragalysis-2/maxwin/openbind-hippo/a71ev2a/cycle_01/bulkdock/openbind_a71ev2a_c1_scaffolds.sdf']

>  <fragmenstein_runtime>  (895) 
1.293143

$$$$
C18187-P391
     RDKit          3D

 12 12  0  0  0  0  0  0  0  0999 V2000
    8.5811    9.9202   24.6895 C   0  0  0  0  0  0  0  0  0  0  0  0
    7.8591   11.2151   24.9287 C   0  0  0  0  0  0  0  0  0  0  0  0
    6.5943   11.1674   25.7463 C   0  0  0  0  0  0  0  0  0  0  0  0
    8.3588   12.3375   24.3761 C   0  0  0  0  0  0  0  0  0  0  0  0
    7.7575   13.6946   24.5541 C   0  0  0  0  0  0  0  0  0  0  0  0
    7.1065   13.9635   25.5652 O   0  0  0  0  0  0  0  0  0  0  0  0
    7.8978   14.6970   23.4377 C   0  0  0  0  0  0  0  0  0  0  0  0
    9.2611   14.8642   22.9839 N   0  0  0  0  0  0  0  0  0  0  0  0
   10.3235   15.3472   23.6950 C   0  0  0  0  0  0  0  0  0  0  0  0
   11.4005   15.2998   22.8402 C   0  0  0  0  0  0  0  0  0  0  0  0
   10.8801   14.7970   21.6338 C   0  0  0  0  0  0  0  0  0  0  0  0
    9.5752   14.5221   21.7249 N   0  0  0  0  0  0  0  0  0  0  0  0
  1  2  1  0
  2  3  1  0
  2  4  2  3
  4  5  1  0
  5  6  2  0
  5  7  1  0
  7  8  1  0
  8  9  1  0
  9 10  2  0
 10 11  1  0
 11 12  2  0
 12  8  1  0
M  END
>  <ref_pdb>  (896) 
A4526a

>  <subsites>  (896) 
1 - Active Site

>  <HIPPO Compound ID>  (896) 
21077

>  <energy_score>  (896) 
-20.858949

>  <fragmenstein_mode>  (896) 
expansion

>  <scratch_subdir>  (896) 
/opt/xchem-fragalysis-2/maxwin/BulkDock/SCRATCH/512211/C18187-P391

>  <smiles>  (896) 
CC(C)=CC(=O)Cn1cccn1

>  <alias>  (896) 
C18187-P391

>  <ref_mols>  (896) 
A0556a,A4526a

>  <inspiration_score>  (896) 
None

>  <tags>  (896) 
BulkDock Fragalysis export,fragmenstein_placed,openbind_a71ev2a_c1_knitwork_impure,openbind_a71ev2a_c1_scaffolds

>  <fragmenstein_outcome>  (896) 
acceptable

>  <fragmenstein_error>  (896) 


>  <distance_score>  (896) 
0.882664

>  <inchikey>  (896) 
DCTJOWXNIBHWEL-UHFFFAOYSA-N

>  <name>  (896) 
C18187-P391

>  <HIPPO Pose ID>  (896) 
433693

>  <Energy>  (896) 
31.4353

>  <exports>  (896) 
['/opt/xchem-fragalysis-2/maxwin/BulkDock/OUTPUTS/openbind_a71ev2a_c1_knitwork_impure_165VXJF.sdf', '/opt/xchem-fragalysis-2/maxwin/BulkDock/OUTPUTS/openbind_a71ev2a_c1_knitwork_impure_1B07QS4.sdf', '/opt/xchem-fragalysis-2/maxwin/BulkDock/OUTPUTS/openbind_a71ev2a_c1_knitwork_impure_1B07X5R.sdf', '/opt/xchem-fragalysis-2/maxwin/openbind-hippo/a71ev2a/openbind_a71ev2a_c1_scaffold_products.sdf', '/opt/xchem-fragalysis-2/maxwin/openbind-hippo/a71ev2a/cycle_01/bulkdock/openbind_a71ev2a_c1_scaffold_products.sdf', '/opt/xchem-fragalysis-2/maxwin/openbind-hippo/a71ev2a/cycle_01/bulkdock/openbind_a71ev2a_c1_scaffolds.sdf']

>  <fragmenstein_runtime>  (896) 
2.64975

$$$$
C18209-P391
     RDKit          3D

 11 11  0  0  0  0  0  0  0  0999 V2000
   11.0112   15.4283   20.7309 C   0  0  0  0  0  0  0  0  0  0  0  0
    9.2614   15.3617   21.1694 S   0  0  0  0  0  0  0  0  0  0  0  0
    9.4116   14.9779   22.9268 C   0  0  0  0  0  0  0  0  0  0  0  0
    8.0953   14.3880   23.4117 C   0  0  0  0  0  0  0  0  0  0  0  0
    8.2633   13.9641   24.7681 O   0  0  0  0  0  0  0  0  0  0  0  0
    7.3539   12.9239   25.1139 C   0  0  0  0  0  0  0  0  0  0  0  0
    7.9318   11.5790   24.8536 C   0  0  0  0  0  0  0  0  0  0  0  0
    7.4666   10.3544   25.3673 C   0  0  0  0  0  0  0  0  0  0  0  0
    8.1877    9.3127   24.9524 N   0  0  0  0  0  0  0  0  0  0  0  0
    9.1046    9.8572   24.1364 N   0  0  0  0  0  0  0  0  0  0  0  0
    9.0122   11.2159   24.0723 C   0  0  0  0  0  0  0  0  0  0  0  0
  1  2  1  0
  2  3  1  0
  3  4  1  0
  4  5  1  0
  5  6  1  0
  6  7  1  0
  7  8  1  0
  8  9  2  0
  9 10  1  0
 10 11  1  0
 11  7  2  0
M  END
>  <ref_pdb>  (897) 
A4526a

>  <subsites>  (897) 
1 - Active Site

>  <HIPPO Compound ID>  (897) 
13624

>  <energy_score>  (897) 
-19.971247

>  <fragmenstein_mode>  (897) 
expansion

>  <scratch_subdir>  (897) 
/opt/xchem-fragalysis-2/maxwin/BulkDock/SCRATCH/512211/C18209-P391

>  <smiles>  (897) 
CSCCOCc1cn[nH]c1

>  <alias>  (897) 
C18209-P391

>  <ref_mols>  (897) 
A0556a,A4526a

>  <inspiration_score>  (897) 
None

>  <tags>  (897) 
BulkDock Fragalysis export,fragmenstein_placed,openbind_a71ev2a_c1_knitwork_impure,openbind_a71ev2a_c1_scaffolds

>  <fragmenstein_outcome>  (897) 
acceptable

>  <fragmenstein_error>  (897) 


>  <distance_score>  (897) 
0.969905

>  <inchikey>  (897) 
ZQFYEICALXCDIF-UHFFFAOYSA-N

>  <name>  (897) 
C18209-P391

>  <HIPPO Pose ID>  (897) 
433698

>  <Energy>  (897) 
30.113625

>  <exports>  (897) 
['/opt/xchem-fragalysis-2/maxwin/BulkDock/OUTPUTS/openbind_a71ev2a_c1_knitwork_impure_165VXJF.sdf', '/opt/xchem-fragalysis-2/maxwin/BulkDock/OUTPUTS/openbind_a71ev2a_c1_knitwork_impure_1B07QS4.sdf', '/opt/xchem-fragalysis-2/maxwin/BulkDock/OUTPUTS/openbind_a71ev2a_c1_knitwork_impure_1B07X5R.sdf', '/opt/xchem-fragalysis-2/maxwin/openbind-hippo/a71ev2a/openbind_a71ev2a_c1_scaffold_products.sdf', '/opt/xchem-fragalysis-2/maxwin/openbind-hippo/a71ev2a/cycle_01/bulkdock/openbind_a71ev2a_c1_scaffold_products.sdf', '/opt/xchem-fragalysis-2/maxwin/openbind-hippo/a71ev2a/cycle_01/bulkdock/openbind_a71ev2a_c1_scaffolds.sdf']

>  <fragmenstein_runtime>  (897) 
1.013221

$$$$
C1304-P207
     RDKit          3D

 12 12  0  0  0  0  0  0  0  0999 V2000
    5.5778   14.6184   25.0835 O   0  0  0  0  0  0  0  0  0  0  0  0
    6.6530   14.1880   24.9661 C   0  0  0  0  0  0  0  0  0  0  0  0
    7.8879   15.0677   24.8645 C   0  0  0  0  0  0  0  0  0  0  0  0
    8.3711   15.1447   23.4152 C   0  0  0  0  0  0  0  0  0  0  0  0
    9.6318   15.8908   23.3196 N   0  0  0  0  0  0  0  0  0  0  0  0
   10.8150   15.1204   23.7494 C   0  0  0  0  0  0  0  0  0  0  0  0
   11.2618   14.0089   22.7788 C   0  0  0  0  0  0  0  0  0  0  0  0
   11.4619   14.4759   21.4095 N   0  0  0  0  0  0  0  0  0  0  0  0
   10.3038   15.2488   20.9379 C   0  0  0  0  0  0  0  0  0  0  0  0
    9.8781   16.3547   21.9250 C   0  0  0  0  0  0  0  0  0  0  0  0
    7.1436   12.7293   24.9086 N   0  0  0  0  0  0  0  0  0  0  0  0
    6.4332   11.5432   24.8892 O   0  0  0  0  0  0  0  0  0  0  0  0
  1  2  2  0
  2  3  1  0
  3  4  1  0
  4  5  1  0
  5  6  1  0
  6  7  1  0
  7  8  1  0
  8  9  1  0
  9 10  1  0
  2 11  1  0
 11 12  1  0
 10  5  1  0
M  END
>  <ref_pdb>  (898) 
A3706a

>  <subsites>  (898) 
1 - Active Site

>  <HIPPO Compound ID>  (898) 
1338

>  <energy_score>  (898) 
-6.210734

>  <fragmenstein_mode>  (898) 
expansion

>  <scratch_subdir>  (898) 
/opt/xchem-fragalysis-2/maxwin/BulkDock/SCRATCH/512211/C1304-P207

>  <smiles>  (898) 
O=C(CCN1CCNCC1)NO

>  <alias>  (898) 
C1304-P207

>  <ref_mols>  (898) 
A1080a,A3706a

>  <inspiration_score>  (898) 
None

>  <tags>  (898) 
BulkDock Fragalysis export,fragmenstein_placed,openbind_a71ev2a_c1_knitwork_impure,openbind_a71ev2a_c1_scaffolds

>  <fragmenstein_outcome>  (898) 
acceptable

>  <fragmenstein_error>  (898) 


>  <distance_score>  (898) 
0.781017

>  <inchikey>  (898) 
SJYNETFQBPJTBE-UHFFFAOYSA-N

>  <name>  (898) 
C1304-P207

>  <HIPPO Pose ID>  (898) 
434180

>  <Energy>  (898) 
114.633519

>  <exports>  (898) 
['/opt/xchem-fragalysis-2/maxwin/BulkDock/OUTPUTS/openbind_a71ev2a_c1_knitwork_impure_165VXJF.sdf', '/opt/xchem-fragalysis-2/maxwin/BulkDock/OUTPUTS/openbind_a71ev2a_c1_knitwork_impure_1B07QS4.sdf', '/opt/xchem-fragalysis-2/maxwin/BulkDock/OUTPUTS/openbind_a71ev2a_c1_knitwork_impure_1B07X5R.sdf', '/opt/xchem-fragalysis-2/maxwin/openbind-hippo/a71ev2a/openbind_a71ev2a_c1_scaffold_products.sdf', '/opt/xchem-fragalysis-2/maxwin/openbind-hippo/a71ev2a/cycle_01/bulkdock/openbind_a71ev2a_c1_scaffold_products.sdf', '/opt/xchem-fragalysis-2/maxwin/openbind-hippo/a71ev2a/cycle_01/bulkdock/openbind_a71ev2a_c1_scaffolds.sdf']

>  <fragmenstein_runtime>  (898) 
1.546805

$$$$
C3858-P32
     RDKit          3D

 17 19  0  0  0  0  0  0  0  0999 V2000
   18.7262   -4.4179   25.7619 C   0  0  0  0  0  0  0  0  0  0  0  0
   18.2181   -5.3191   24.8550 C   0  0  0  0  0  0  0  0  0  0  0  0
   18.2746   -4.6859   23.6457 N   0  0  0  0  0  0  0  0  0  0  0  0
   17.8653   -5.2041   22.4574 N   0  0  0  0  0  0  0  0  0  0  0  0
   18.0598   -4.3892   21.4681 C   0  0  0  0  0  0  0  0  0  0  0  0
   17.6836   -4.8057   20.2419 O   0  0  0  0  0  0  0  0  0  0  0  0
   17.2223   -3.9389   19.1769 C   0  0  0  0  0  0  0  0  0  0  0  0
   15.8881   -4.4821   18.6627 C   0  0  0  0  0  0  0  0  0  0  0  0
   15.9774   -5.9069   18.1048 C   0  0  0  0  0  0  0  0  0  0  0  0
   14.5979   -6.4010   17.6618 C   0  0  0  0  0  0  0  0  0  0  0  0
   13.9673   -5.4849   16.7140 N   0  0  0  0  0  0  0  0  0  0  0  0
   13.8758   -4.1204   17.2320 C   0  0  0  0  0  0  0  0  0  0  0  0
   15.2365   -3.5660   17.6441 C   0  0  0  0  0  0  0  0  0  0  0  0
   18.6915   -3.0579   21.5345 C   0  0  0  0  0  0  0  0  0  0  0  0
   19.0440   -2.6160   22.7480 C   0  0  0  0  0  0  0  0  0  0  0  0
   18.8326   -3.4398   23.8714 C   0  0  0  0  0  0  0  0  0  0  0  0
   19.1032   -3.2499   25.1437 N   0  0  0  0  0  0  0  0  0  0  0  0
  1  2  2  0
  2  3  1  0
  3  4  1  0
  4  5  2  0
  5  6  1  0
  6  7  1  0
  7  8  1  0
  8  9  1  0
  9 10  1  0
 10 11  1  0
 11 12  1  0
 12 13  1  0
  5 14  1  0
 14 15  2  0
 15 16  1  0
 16 17  2  0
 17  1  1  0
 16  3  1  0
 13  8  1  0
M  END
>  <ref_pdb>  (899) 
A0269a

>  <subsites>  (899) 
2 - A3977/A/202/1

>  <HIPPO Compound ID>  (899) 
8604

>  <energy_score>  (899) 
-44.907064

>  <fragmenstein_mode>  (899) 
expansion

>  <scratch_subdir>  (899) 
/opt/xchem-fragalysis-2/maxwin/BulkDock/SCRATCH/512211/C3858-P32

>  <smiles>  (899) 
c1cn2nc(OCC3CCNCC3)ccc2n1

>  <alias>  (899) 
C3858-P32

>  <ref_mols>  (899) 
A0269a,A0202a

>  <inspiration_score>  (899) 
None

>  <tags>  (899) 
BulkDock Fragalysis export,fragmenstein_placed,openbind_a71ev2a_c1_knitwork_impure,openbind_a71ev2a_c1_scaffolds

>  <fragmenstein_outcome>  (899) 
acceptable

>  <fragmenstein_error>  (899) 


>  <distance_score>  (899) 
0.851524

>  <inchikey>  (899) 
RNMVOHQXDNXOGF-UHFFFAOYSA-N

>  <name>  (899) 
C3858-P32

>  <HIPPO Pose ID>  (899) 
434510

>  <Energy>  (899) 
2.309243

>  <exports>  (899) 
['/opt/xchem-fragalysis-2/maxwin/BulkDock/OUTPUTS/openbind_a71ev2a_c1_knitwork_impure_165VXJF.sdf', '/opt/xchem-fragalysis-2/maxwin/BulkDock/OUTPUTS/openbind_a71ev2a_c1_knitwork_impure_1B07QS4.sdf', '/opt/xchem-fragalysis-2/maxwin/BulkDock/OUTPUTS/openbind_a71ev2a_c1_knitwork_impure_1B07X5R.sdf', '/opt/xchem-fragalysis-2/maxwin/openbind-hippo/a71ev2a/openbind_a71ev2a_c1_scaffold_products.sdf', '/opt/xchem-fragalysis-2/maxwin/openbind-hippo/a71ev2a/cycle_01/bulkdock/openbind_a71ev2a_c1_scaffold_products.sdf', '/opt/xchem-fragalysis-2/maxwin/openbind-hippo/a71ev2a/cycle_01/bulkdock/openbind_a71ev2a_c1_scaffolds.sdf']

>  <fragmenstein_runtime>  (899) 
2.322624

$$$$
C23130-P37
     RDKit          3D

 22 22  0  0  0  0  0  0  0  0999 V2000
   12.7947   14.9158   22.4143 C   0  0  0  0  0  0  0  0  0  0  0  0
   11.9000   13.6934   22.3634 C   0  0  0  0  0  0  0  0  0  0  0  0
   11.0320   13.5861   23.6079 C   0  0  0  0  0  0  0  0  0  0  0  0
   11.0409   14.3743   24.4723 O   0  0  0  0  0  0  0  0  0  0  0  0
   10.1328   12.3297   23.3958 N   0  0  0  0  0  0  0  0  0  0  0  0
    9.0422   11.8631   24.1291 C   0  0  0  0  0  0  0  0  0  0  0  0
    8.8391   10.4931   24.1909 C   0  0  0  0  0  0  0  0  0  0  0  0
    7.8333    9.9745   25.0133 C   0  0  0  0  0  0  0  0  0  0  0  0
    6.9936   10.7981   25.7570 C   0  0  0  0  0  0  0  0  0  0  0  0
    6.0341   10.2551   26.6149 N   0  0  0  0  0  0  0  0  0  0  0  0
    5.0142   10.9580   27.5732 C   0  0  0  0  0  0  0  0  0  0  0  0
    4.7769   12.0935   27.7257 O   0  0  0  0  0  0  0  0  0  0  0  0
    4.3802    9.8635   28.4388 C   0  0  0  0  0  0  0  0  0  0  0  0
    3.5432   10.3268   29.6635 C   0  0  1  0  0  0  0  0  0  0  0  0
    4.0482   11.5925   30.3626 C   0  0  0  0  0  0  0  0  0  0  0  0
    2.0504   10.4430   29.3917 C   0  0  0  0  0  0  0  0  0  0  0  0
    1.3811   10.7079   30.5388 F   0  0  0  0  0  0  0  0  0  0  0  0
    1.5615    9.2759   28.9126 F   0  0  0  0  0  0  0  0  0  0  0  0
    1.7410   11.4018   28.5000 F   0  0  0  0  0  0  0  0  0  0  0  0
    7.1413   12.1677   25.6249 C   0  0  0  0  0  0  0  0  0  0  0  0
    8.1456   12.7085   24.7993 C   0  0  0  0  0  0  0  0  0  0  0  0
    8.1489   14.1929   24.6311 C   0  0  0  0  0  0  0  0  0  0  0  0
  1  2  1  0
  2  3  1  0
  3  4  2  0
  3  5  1  0
  5  6  1  0
  6  7  2  0
  7  8  1  0
  8  9  2  0
  9 10  1  0
 10 11  1  0
 11 12  2  0
 11 13  1  0
 13 14  1  0
 14 15  1  6
 14 16  1  0
 16 17  1  0
 16 18  1  0
 16 19  1  0
  9 20  1  0
 20 21  2  0
 21 22  1  0
 21  6  1  0
M  END
>  <ref_pdb>  (900) 
A0310a

>  <subsites>  (900) 
1 - Active Site

>  <HIPPO Compound ID>  (900) 
23130

>  <energy_score>  (900) 
-25.480199

>  <fragmenstein_mode>  (900) 
expansion

>  <scratch_subdir>  (900) 
/opt/xchem-fragalysis-2/maxwin/BulkDock/SCRATCH/512028/C23130-P37

>  <smiles>  (900) 
CCC(=O)Nc1ccc(NC(=O)C[C@@H](C)C(F)(F)F)cc1C

>  <alias>  (900) 
C23130-P37

>  <ref_mols>  (900) 
A1445a,A0310a

>  <inspiration_score>  (900) 
None

>  <tags>  (900) 
BulkDock Fragalysis export,fragmenstein_placed,openbind_a71ev2a_c1_knitwork_impure,openbind_a71ev2a_c1_scaffolds

>  <fragmenstein_outcome>  (900) 
acceptable

>  <fragmenstein_error>  (900) 


>  <distance_score>  (900) 
0.997458

>  <inchikey>  (900) 
UGZOXRFYKLKGPI-UHFFFAOYSA-N

>  <name>  (900) 
C23130-P37

>  <HIPPO Pose ID>  (900) 
435267

>  <Energy>  (900) 
20.618828

>  <exports>  (900) 
['/opt/xchem-fragalysis-2/maxwin/BulkDock/OUTPUTS/openbind_a71ev2a_c1_knitwork_impure_165VXJF.sdf', '/opt/xchem-fragalysis-2/maxwin/BulkDock/OUTPUTS/openbind_a71ev2a_c1_knitwork_impure_1B07QS4.sdf', '/opt/xchem-fragalysis-2/maxwin/BulkDock/OUTPUTS/openbind_a71ev2a_c1_knitwork_impure_1B07X5R.sdf', '/opt/xchem-fragalysis-2/maxwin/openbind-hippo/a71ev2a/openbind_a71ev2a_c1_scaffold_products.sdf', '/opt/xchem-fragalysis-2/maxwin/openbind-hippo/a71ev2a/cycle_01/bulkdock/openbind_a71ev2a_c1_scaffold_products.sdf', '/opt/xchem-fragalysis-2/maxwin/openbind-hippo/a71ev2a/cycle_01/bulkdock/openbind_a71ev2a_c1_scaffolds.sdf']

>  <fragmenstein_runtime>  (900) 
7.593563

$$$$
C7644-P270
     RDKit          3D

 13 13  0  0  0  0  0  0  0  0999 V2000
    7.3307   15.7918   26.4690 C   0  0  0  0  0  0  0  0  0  0  0  0
    7.8611   15.5439   25.0662 C   0  0  0  0  0  0  0  0  0  0  0  0
    6.7331   15.2863   24.0729 C   0  0  0  0  0  0  0  0  0  0  0  0
    7.2605   14.3720   22.6261 S   0  0  0  0  0  0  0  0  0  0  0  0
    8.6220   14.7204   22.3037 O   0  0  0  0  0  0  0  0  0  0  0  0
    6.2146   14.4208   21.6319 O   0  0  0  0  0  0  0  0  0  0  0  0
    7.1934   12.7902   23.1752 N   0  0  0  0  0  0  0  0  0  0  0  0
    8.2299   12.2809   24.0658 C   0  0  2  0  0  0  0  0  0  0  0  0
    8.6610   10.9496   23.5457 C   0  0  0  0  0  0  0  0  0  0  0  0
    8.1759    9.7856   23.9998 C   0  0  0  0  0  0  0  0  0  0  0  0
    7.1289    9.6961   25.0602 C   0  0  0  0  0  0  0  0  0  0  0  0
    6.6440   11.0183   25.6325 C   0  0  0  0  0  0  0  0  0  0  0  0
    7.6677   12.1279   25.4741 C   0  0  0  0  0  0  0  0  0  0  0  0
  1  2  1  0
  2  3  1  0
  3  4  1  0
  4  5  2  0
  4  6  2  0
  4  7  1  0
  8  7  1  6
  8  9  1  0
  9 10  2  0
 10 11  1  0
 11 12  1  0
 12 13  1  0
 13  8  1  0
M  END
>  <ref_pdb>  (901) 
A4020a

>  <subsites>  (901) 
1 - Active Site

>  <HIPPO Compound ID>  (901) 
7644

>  <energy_score>  (901) 
-25.0399

>  <fragmenstein_mode>  (901) 
expansion

>  <scratch_subdir>  (901) 
/opt/xchem-fragalysis-2/maxwin/BulkDock/SCRATCH/512028/C7644-P270

>  <smiles>  (901) 
CCCS(=O)(=O)N[C@@H]1C=CCCC1

>  <alias>  (901) 
C7644-P270

>  <ref_mols>  (901) 
A0719a,A4020a

>  <inspiration_score>  (901) 
None

>  <tags>  (901) 
BulkDock Fragalysis export,fragmenstein_placed,openbind_a71ev2a_c1_knitwork_impure,openbind_a71ev2a_c1_scaffolds

>  <fragmenstein_outcome>  (901) 
acceptable

>  <fragmenstein_error>  (901) 


>  <distance_score>  (901) 
0.989367

>  <inchikey>  (901) 
FQPSGVBYUDGJAR-UHFFFAOYSA-N

>  <name>  (901) 
C7644-P270

>  <HIPPO Pose ID>  (901) 
435887

>  <Energy>  (901) 
-75.297976

>  <exports>  (901) 
['/opt/xchem-fragalysis-2/maxwin/BulkDock/OUTPUTS/openbind_a71ev2a_c1_knitwork_impure_165VXJF.sdf', '/opt/xchem-fragalysis-2/maxwin/BulkDock/OUTPUTS/openbind_a71ev2a_c1_knitwork_impure_1B07QS4.sdf', '/opt/xchem-fragalysis-2/maxwin/BulkDock/OUTPUTS/openbind_a71ev2a_c1_knitwork_impure_1B07X5R.sdf', '/opt/xchem-fragalysis-2/maxwin/openbind-hippo/a71ev2a/openbind_a71ev2a_c1_scaffold_products.sdf', '/opt/xchem-fragalysis-2/maxwin/openbind-hippo/a71ev2a/cycle_01/bulkdock/openbind_a71ev2a_c1_scaffold_products.sdf', '/opt/xchem-fragalysis-2/maxwin/openbind-hippo/a71ev2a/cycle_01/bulkdock/openbind_a71ev2a_c1_scaffolds.sdf']

>  <fragmenstein_runtime>  (901) 
37.914315

$$$$
C7649-P270
     RDKit          3D

 14 15  0  0  0  0  0  0  0  0999 V2000
    5.8319   16.1263   21.8990 N   0  0  0  0  0  0  0  0  0  0  0  0
    6.8444   14.9936   22.6079 S   0  0  0  0  0  0  0  0  0  0  0  0
    8.1747   15.5295   22.4594 O   0  0  0  0  0  0  0  0  0  0  0  0
    6.4501   13.7362   22.0103 O   0  0  0  0  0  0  0  0  0  0  0  0
    6.3125   15.1161   24.3150 C   0  0  0  0  0  0  0  0  0  0  0  0
    7.1603   14.3236   25.3048 C   0  0  0  0  0  0  0  0  0  0  0  0
    6.9337   12.8088   25.1837 C   0  0  0  0  0  0  0  0  0  0  0  0
    8.1468   12.0387   24.9557 N   0  0  0  0  0  0  0  0  0  0  0  0
    8.8571   12.5129   23.7657 C   0  0  0  0  0  0  0  0  0  0  0  0
    9.7985   11.3925   23.4826 C   0  0  0  0  0  0  0  0  0  0  0  0
    9.0008   10.1781   23.8172 C   0  0  0  0  0  0  0  0  0  0  0  0
    9.6302    8.8102   23.9833 C   0  0  0  0  0  0  0  0  0  0  0  0
    8.8899    9.1024   22.7561 C   0  0  0  0  0  0  0  0  0  0  0  0
    7.8449   10.6066   24.6866 C   0  0  0  0  0  0  0  0  0  0  0  0
  1  2  1  0
  2  3  2  0
  2  4  2  0
  2  5  1  0
  5  6  1  0
  6  7  1  0
  7  8  1  0
  8  9  1  0
  9 10  1  0
 10 11  1  0
 11 12  1  0
 12 13  1  0
 11 14  1  0
 14  8  1  0
 13 11  1  0
M  END
>  <ref_pdb>  (902) 
A4020a

>  <subsites>  (902) 
1 - Active Site

>  <HIPPO Compound ID>  (902) 
7170

>  <energy_score>  (902) 
-36.150809

>  <fragmenstein_mode>  (902) 
expansion

>  <scratch_subdir>  (902) 
/opt/xchem-fragalysis-2/maxwin/BulkDock/SCRATCH/512028/C7649-P270

>  <smiles>  (902) 
NS(=O)(=O)CCCN1CCC2(CC2)C1

>  <alias>  (902) 
C7649-P270

>  <ref_mols>  (902) 
A0719a,A4020a

>  <inspiration_score>  (902) 
None

>  <tags>  (902) 
BulkDock Fragalysis export,fragmenstein_placed,openbind_a71ev2a_c1_knitwork_impure,openbind_a71ev2a_c1_scaffolds

>  <fragmenstein_outcome>  (902) 
acceptable

>  <fragmenstein_error>  (902) 


>  <distance_score>  (902) 
0.974322

>  <inchikey>  (902) 
VYSLTJZGYMQXGZ-UHFFFAOYSA-N

>  <name>  (902) 
C7649-P270

>  <HIPPO Pose ID>  (902) 
435890

>  <Energy>  (902) 
-52.633666

>  <exports>  (902) 
['/opt/xchem-fragalysis-2/maxwin/BulkDock/OUTPUTS/openbind_a71ev2a_c1_knitwork_impure_165VXJF.sdf', '/opt/xchem-fragalysis-2/maxwin/BulkDock/OUTPUTS/openbind_a71ev2a_c1_knitwork_impure_1B07QS4.sdf', '/opt/xchem-fragalysis-2/maxwin/BulkDock/OUTPUTS/openbind_a71ev2a_c1_knitwork_impure_1B07X5R.sdf', '/opt/xchem-fragalysis-2/maxwin/openbind-hippo/a71ev2a/openbind_a71ev2a_c1_scaffold_products.sdf', '/opt/xchem-fragalysis-2/maxwin/openbind-hippo/a71ev2a/cycle_01/bulkdock/openbind_a71ev2a_c1_scaffold_products.sdf', '/opt/xchem-fragalysis-2/maxwin/openbind-hippo/a71ev2a/cycle_01/bulkdock/openbind_a71ev2a_c1_scaffolds.sdf']

>  <fragmenstein_runtime>  (902) 
5.39062

$$$$
C23707-P106
     RDKit          3D

 13 13  0  0  0  0  0  0  0  0999 V2000
   13.4171   12.5662   26.1881 C   0  0  0  0  0  0  0  0  0  0  0  0
   13.4401   11.6553   24.9779 C   0  0  0  0  0  0  0  0  0  0  0  0
   14.7864   10.9209   25.0715 C   0  0  0  0  0  0  0  0  0  0  0  0
   12.2137   10.6984   24.8058 C   0  0  0  0  0  0  0  0  0  0  0  0
   10.8133   11.3327   24.7449 C   0  0  2  0  0  0  0  0  0  0  0  0
    9.8162   10.2463   24.3231 C   0  0  0  0  0  0  0  0  0  0  0  0
    8.4046   10.6613   24.6944 C   0  0  0  0  0  0  0  0  0  0  0  0
    8.1837   12.1700   24.6920 C   0  0  0  0  0  0  0  0  0  0  0  0
    9.1171   12.8949   23.7579 C   0  0  0  0  0  0  0  0  0  0  0  0
    8.6427   13.7609   22.8520 C   0  0  0  0  0  0  0  0  0  0  0  0
    9.4838   14.4527   22.0609 F   0  0  0  0  0  0  0  0  0  0  0  0
    7.3115   13.9004   22.6854 F   0  0  0  0  0  0  0  0  0  0  0  0
   10.6008   12.5758   23.8660 C   0  0  0  0  0  0  0  0  0  0  0  0
  1  2  1  0
  2  3  1  0
  2  4  1  0
  5  4  1  6
  5  6  1  0
  6  7  1  0
  7  8  1  0
  8  9  1  0
  9 10  2  3
 10 11  1  0
 10 12  1  0
  9 13  1  0
 13  5  1  0
M  END
>  <ref_pdb>  (903) 
A1140a

>  <subsites>  (903) 
1 - Active Site

>  <HIPPO Compound ID>  (903) 
7592

>  <energy_score>  (903) 
-1.544319

>  <fragmenstein_mode>  (903) 
expansion

>  <scratch_subdir>  (903) 
/opt/xchem-fragalysis-2/maxwin/BulkDock/SCRATCH/512028/C23707-P106

>  <smiles>  (903) 
CC(C)C[C@@H]1CCCC(=C(F)F)C1

>  <alias>  (903) 
C23707-P106

>  <ref_mols>  (903) 
A4311a,A1140a

>  <inspiration_score>  (903) 
None

>  <tags>  (903) 
BulkDock Fragalysis export,fragmenstein_placed,openbind_a71ev2a_c1_knitwork_impure,openbind_a71ev2a_c1_scaffolds

>  <fragmenstein_outcome>  (903) 
acceptable

>  <fragmenstein_error>  (903) 


>  <distance_score>  (903) 
0.980717

>  <inchikey>  (903) 
XNDMHKZPZBSGFI-UHFFFAOYSA-N

>  <name>  (903) 
C23707-P106

>  <HIPPO Pose ID>  (903) 
435922

>  <Energy>  (903) 
26.232553

>  <exports>  (903) 
['/opt/xchem-fragalysis-2/maxwin/BulkDock/OUTPUTS/openbind_a71ev2a_c1_knitwork_impure_165VXJF.sdf', '/opt/xchem-fragalysis-2/maxwin/BulkDock/OUTPUTS/openbind_a71ev2a_c1_knitwork_impure_1B07QS4.sdf', '/opt/xchem-fragalysis-2/maxwin/BulkDock/OUTPUTS/openbind_a71ev2a_c1_knitwork_impure_1B07X5R.sdf', '/opt/xchem-fragalysis-2/maxwin/openbind-hippo/a71ev2a/openbind_a71ev2a_c1_scaffold_products.sdf', '/opt/xchem-fragalysis-2/maxwin/openbind-hippo/a71ev2a/cycle_01/bulkdock/openbind_a71ev2a_c1_scaffold_products.sdf', '/opt/xchem-fragalysis-2/maxwin/openbind-hippo/a71ev2a/cycle_01/bulkdock/openbind_a71ev2a_c1_scaffolds.sdf']

>  <fragmenstein_runtime>  (903) 
18.557903

$$$$
C9375-P199
     RDKit          3D

 14 14  0  0  0  0  0  0  0  0999 V2000
   11.5630   14.8649   19.7115 C   0  0  0  0  0  0  0  0  0  0  0  0
   11.0892   15.3176   21.0897 C   0  0  2  0  0  0  0  0  0  0  0  0
   11.8471   14.6557   22.1589 C   0  0  0  0  0  0  0  0  0  0  0  0
   12.3218   14.0216   23.0077 N   0  0  0  0  0  0  0  0  0  0  0  0
    9.5837   15.0843   21.2391 C   0  0  0  0  0  0  0  0  0  0  0  0
    9.2729   13.7579   21.8236 N   0  0  0  0  0  0  0  0  0  0  0  0
    8.5748   13.7951   23.3330 S   0  0  0  0  0  0  0  0  0  0  0  0
    9.5490   14.2050   24.3103 O   0  0  0  0  0  0  0  0  0  0  0  0
    7.2953   14.4352   23.1991 O   0  0  0  0  0  0  0  0  0  0  0  0
    8.2912   12.1739   23.5786 N   0  0  0  0  0  0  0  0  0  0  0  0
    9.4513   11.2682   23.5450 C   0  0  0  0  0  0  0  0  0  0  0  0
    8.8884    9.9848   24.1106 C   0  0  0  0  0  0  0  0  0  0  0  0
    7.8601   10.4320   25.1383 C   0  0  0  0  0  0  0  0  0  0  0  0
    7.6009   11.9019   24.8630 C   0  0  0  0  0  0  0  0  0  0  0  0
  2  1  1  6
  2  3  1  0
  3  4  3  0
  2  5  1  0
  5  6  1  0
  6  7  1  0
  7  8  2  0
  7  9  2  0
  7 10  1  0
 10 11  1  0
 11 12  1  0
 12 13  1  0
 13 14  1  0
 14 10  1  0
M  END
>  <ref_pdb>  (904) 
A3621a

>  <subsites>  (904) 
1 - Active Site

>  <HIPPO Compound ID>  (904) 
7642

>  <energy_score>  (904) 
-38.293011

>  <fragmenstein_mode>  (904) 
expansion

>  <scratch_subdir>  (904) 
/opt/xchem-fragalysis-2/maxwin/BulkDock/SCRATCH/512028/C9375-P199

>  <smiles>  (904) 
C[C@H](C#N)CNS(=O)(=O)N1CCCC1

>  <alias>  (904) 
C9375-P199

>  <ref_mols>  (904) 
A0719a,A3621a

>  <inspiration_score>  (904) 
None

>  <tags>  (904) 
BulkDock Fragalysis export,fragmenstein_placed,openbind_a71ev2a_c1_knitwork_impure,openbind_a71ev2a_c1_scaffolds

>  <fragmenstein_outcome>  (904) 
acceptable

>  <fragmenstein_error>  (904) 


>  <distance_score>  (904) 
0.97572

>  <inchikey>  (904) 
JIBIHHYZANIHBI-UHFFFAOYSA-N

>  <name>  (904) 
C9375-P199

>  <HIPPO Pose ID>  (904) 
435994

>  <Energy>  (904) 
-158.326718

>  <exports>  (904) 
['/opt/xchem-fragalysis-2/maxwin/BulkDock/OUTPUTS/openbind_a71ev2a_c1_knitwork_impure_165VXJF.sdf', '/opt/xchem-fragalysis-2/maxwin/BulkDock/OUTPUTS/openbind_a71ev2a_c1_knitwork_impure_1B07QS4.sdf', '/opt/xchem-fragalysis-2/maxwin/BulkDock/OUTPUTS/openbind_a71ev2a_c1_knitwork_impure_1B07X5R.sdf', '/opt/xchem-fragalysis-2/maxwin/openbind-hippo/a71ev2a/openbind_a71ev2a_c1_scaffold_products.sdf', '/opt/xchem-fragalysis-2/maxwin/openbind-hippo/a71ev2a/cycle_01/bulkdock/openbind_a71ev2a_c1_scaffold_products.sdf', '/opt/xchem-fragalysis-2/maxwin/openbind-hippo/a71ev2a/cycle_01/bulkdock/openbind_a71ev2a_c1_scaffolds.sdf']

>  <fragmenstein_runtime>  (904) 
5.161776

$$$$
C9394-P199
     RDKit          3D

 13 13  0  0  0  0  0  0  0  0999 V2000
    5.5364   11.9225   26.6756 C   0  0  0  0  0  0  0  0  0  0  0  0
    6.1233   10.7207   26.6327 C   0  0  0  0  0  0  0  0  0  0  0  0
    7.0488   10.2104   25.5721 C   0  0  0  0  0  0  0  0  0  0  0  0
    7.4318   11.1915   24.6126 O   0  0  0  0  0  0  0  0  0  0  0  0
    8.4213   12.0770   25.1218 C   0  0  0  0  0  0  0  0  0  0  0  0
    9.4363   12.5346   24.0831 C   0  0  1  0  0  0  0  0  0  0  0  0
    9.9490   11.4116   23.3666 O   0  0  0  0  0  0  0  0  0  0  0  0
    8.8715   13.5985   23.1372 C   0  0  0  0  0  0  0  0  0  0  0  0
    9.8320   13.9160   22.0813 N   0  0  0  0  0  0  0  0  0  0  0  0
   11.1365   14.4001   22.5315 C   0  0  0  0  0  0  0  0  0  0  0  0
   11.6906   15.1845   21.3533 C   0  0  0  0  0  0  0  0  0  0  0  0
   10.5570   15.2455   20.3415 C   0  0  0  0  0  0  0  0  0  0  0  0
    9.3246   14.9263   21.1563 C   0  0  0  0  0  0  0  0  0  0  0  0
  1  2  2  0
  2  3  1  0
  3  4  1  0
  4  5  1  0
  5  6  1  0
  6  7  1  6
  6  8  1  0
  8  9  1  0
  9 10  1  0
 10 11  1  0
 11 12  1  0
 12 13  1  0
 13  9  1  0
M  END
>  <ref_pdb>  (905) 
A3621a

>  <subsites>  (905) 
1 - Active Site

>  <HIPPO Compound ID>  (905) 
4693

>  <energy_score>  (905) 
-33.993345

>  <fragmenstein_mode>  (905) 
expansion

>  <scratch_subdir>  (905) 
/opt/xchem-fragalysis-2/maxwin/BulkDock/SCRATCH/512028/C9394-P199

>  <smiles>  (905) 
C=CCOC[C@@H](O)CN1CCCC1

>  <alias>  (905) 
C9394-P199

>  <ref_mols>  (905) 
A0719a,A3621a

>  <inspiration_score>  (905) 
None

>  <tags>  (905) 
BulkDock Fragalysis export,fragmenstein_placed,openbind_a71ev2a_c1_knitwork_impure,openbind_a71ev2a_c1_scaffolds

>  <fragmenstein_outcome>  (905) 
acceptable

>  <fragmenstein_error>  (905) 


>  <distance_score>  (905) 
0.898218

>  <inchikey>  (905) 
QLEQENYLQKJYBV-UHFFFAOYSA-N

>  <name>  (905) 
C9394-P199

>  <HIPPO Pose ID>  (905) 
436001

>  <Energy>  (905) 
56.951936

>  <exports>  (905) 
['/opt/xchem-fragalysis-2/maxwin/BulkDock/OUTPUTS/openbind_a71ev2a_c1_knitwork_impure_165VXJF.sdf', '/opt/xchem-fragalysis-2/maxwin/BulkDock/OUTPUTS/openbind_a71ev2a_c1_knitwork_impure_1B07QS4.sdf', '/opt/xchem-fragalysis-2/maxwin/BulkDock/OUTPUTS/openbind_a71ev2a_c1_knitwork_impure_1B07X5R.sdf', '/opt/xchem-fragalysis-2/maxwin/openbind-hippo/a71ev2a/openbind_a71ev2a_c1_scaffold_products.sdf', '/opt/xchem-fragalysis-2/maxwin/openbind-hippo/a71ev2a/cycle_01/bulkdock/openbind_a71ev2a_c1_scaffold_products.sdf', '/opt/xchem-fragalysis-2/maxwin/openbind-hippo/a71ev2a/cycle_01/bulkdock/openbind_a71ev2a_c1_scaffolds.sdf']

>  <fragmenstein_runtime>  (905) 
3.697864

$$$$
C7664-P214
     RDKit          3D

 11 11  0  0  0  0  0  0  0  0999 V2000
    7.4876   15.3478   26.7664 C   0  0  0  0  0  0  0  0  0  0  0  0
    8.0631   15.1470   25.3764 C   0  0  0  0  0  0  0  0  0  0  0  0
    6.9640   15.0544   24.3244 C   0  0  0  0  0  0  0  0  0  0  0  0
    7.4328   14.0114   22.9488 S   0  0  0  0  0  0  0  0  0  0  0  0
    8.7267   14.4630   22.4813 O   0  0  0  0  0  0  0  0  0  0  0  0
    6.3394   13.8864   22.0117 O   0  0  0  0  0  0  0  0  0  0  0  0
    7.6742   12.4427   23.5504 N   0  0  0  0  0  0  0  0  0  0  0  0
    7.3077   12.1517   24.8859 N   0  0  0  0  0  0  0  0  0  0  0  0
    5.8552   12.1676   25.1819 C   0  0  0  0  0  0  0  0  0  0  0  0
    5.9380   10.7359   25.7086 C   0  0  0  0  0  0  0  0  0  0  0  0
    7.2823   10.6631   24.9959 C   0  0  0  0  0  0  0  0  0  0  0  0
  1  2  1  0
  2  3  1  0
  3  4  1  0
  4  5  2  0
  4  6  2  0
  4  7  1  0
  7  8  1  0
  8  9  1  0
  9 10  1  0
 10 11  1  0
 11  8  1  0
M  END
>  <ref_pdb>  (906) 
A3550a

>  <subsites>  (906) 
1 - Active Site

>  <HIPPO Compound ID>  (906) 
7229

>  <energy_score>  (906) 
-24.496543

>  <fragmenstein_mode>  (906) 
expansion

>  <scratch_subdir>  (906) 
/opt/xchem-fragalysis-2/maxwin/BulkDock/SCRATCH/512028/C7664-P214

>  <smiles>  (906) 
CCCS(=O)(=O)NN1CCC1

>  <alias>  (906) 
C7664-P214

>  <ref_mols>  (906) 
A0719a,A3550a

>  <inspiration_score>  (906) 
None

>  <tags>  (906) 
BulkDock Fragalysis export,fragmenstein_placed,openbind_a71ev2a_c1_knitwork_impure,openbind_a71ev2a_c1_scaffolds

>  <fragmenstein_outcome>  (906) 
acceptable

>  <fragmenstein_error>  (906) 


>  <distance_score>  (906) 
0.983398

>  <inchikey>  (906) 
LUOQOSYKLXGGAL-UHFFFAOYSA-N

>  <name>  (906) 
C7664-P214

>  <HIPPO Pose ID>  (906) 
437043

>  <Energy>  (906) 
33.423925

>  <exports>  (906) 
['/opt/xchem-fragalysis-2/maxwin/BulkDock/OUTPUTS/openbind_a71ev2a_c1_knitwork_impure_165VXJF.sdf', '/opt/xchem-fragalysis-2/maxwin/BulkDock/OUTPUTS/openbind_a71ev2a_c1_knitwork_impure_1B07QS4.sdf', '/opt/xchem-fragalysis-2/maxwin/BulkDock/OUTPUTS/openbind_a71ev2a_c1_knitwork_impure_1B07X5R.sdf', '/opt/xchem-fragalysis-2/maxwin/openbind-hippo/a71ev2a/openbind_a71ev2a_c1_scaffold_products.sdf', '/opt/xchem-fragalysis-2/maxwin/openbind-hippo/a71ev2a/cycle_01/bulkdock/openbind_a71ev2a_c1_scaffold_products.sdf', '/opt/xchem-fragalysis-2/maxwin/openbind-hippo/a71ev2a/cycle_01/bulkdock/openbind_a71ev2a_c1_scaffolds.sdf']

>  <fragmenstein_runtime>  (906) 
11.736211

$$$$
C1625-P182
     RDKit          3D

 14 14  0  0  0  0  0  0  0  0999 V2000
    9.5903   16.8972   20.1955 C   0  0  0  0  0  0  0  0  0  0  0  0
    9.8650   15.4164   20.0535 C   0  0  1  0  0  0  0  0  0  0  0  0
   11.0738   15.0394   18.8128 Cl  0  0  0  0  0  0  0  0  0  0  0  0
   10.1778   14.7500   21.3836 C   0  0  0  0  0  0  0  0  0  0  0  0
   11.6410   14.7640   21.8314 C   0  0  0  0  0  0  0  0  0  0  0  0
   11.8126   14.2672   23.2625 C   0  0  0  0  0  0  0  0  0  0  0  0
   10.8697   13.2459   23.6209 N   0  0  0  0  0  0  0  0  0  0  0  0
    9.6470   13.2971   24.5546 C   0  0  0  0  0  0  0  0  0  0  0  0
    9.2562   14.1541   25.2402 O   0  0  0  0  0  0  0  0  0  0  0  0
    8.9262   12.0296   24.5391 C   0  0  0  0  0  0  0  0  0  0  0  0
    9.0484   10.8181   23.8868 C   0  0  0  0  0  0  0  0  0  0  0  0
    8.1024    9.9320   24.3454 N   0  0  0  0  0  0  0  0  0  0  0  0
    7.4188   10.6345   25.2164 C   0  0  0  0  0  0  0  0  0  0  0  0
    7.8553   11.9019   25.3968 O   0  0  0  0  0  0  0  0  0  0  0  0
  2  1  1  1
  2  3  1  0
  2  4  1  0
  4  5  1  0
  5  6  1  0
  6  7  1  0
  7  8  1  0
  8  9  2  0
  8 10  1  0
 10 11  2  0
 11 12  1  0
 12 13  2  0
 13 14  1  0
 14 10  1  0
M  END
>  <ref_pdb>  (907) 
A3435a

>  <subsites>  (907) 
1 - Active Site

>  <HIPPO Compound ID>  (907) 
18151

>  <energy_score>  (907) 
-0.325219

>  <fragmenstein_mode>  (907) 
expansion

>  <scratch_subdir>  (907) 
/opt/xchem-fragalysis-2/maxwin/BulkDock/SCRATCH/512028/C1625-P182

>  <smiles>  (907) 
C[C@@H](Cl)CCCNC(=O)c1cnco1

>  <alias>  (907) 
C1625-P182

>  <ref_mols>  (907) 
A3618a,A3435a

>  <inspiration_score>  (907) 
None

>  <tags>  (907) 
BulkDock Fragalysis export,fragmenstein_placed,openbind_a71ev2a_c1_knitwork_impure,openbind_a71ev2a_c1_scaffolds

>  <fragmenstein_outcome>  (907) 
acceptable

>  <fragmenstein_error>  (907) 


>  <distance_score>  (907) 
0.992921

>  <inchikey>  (907) 
KSBHXPKVWQLEFJ-UHFFFAOYSA-N

>  <name>  (907) 
C1625-P182

>  <HIPPO Pose ID>  (907) 
437431

>  <Energy>  (907) 
20.977403

>  <exports>  (907) 
['/opt/xchem-fragalysis-2/maxwin/BulkDock/OUTPUTS/openbind_a71ev2a_c1_knitwork_impure_165VXJF.sdf', '/opt/xchem-fragalysis-2/maxwin/BulkDock/OUTPUTS/openbind_a71ev2a_c1_knitwork_impure_1B07QS4.sdf', '/opt/xchem-fragalysis-2/maxwin/BulkDock/OUTPUTS/openbind_a71ev2a_c1_knitwork_impure_1B07X5R.sdf', '/opt/xchem-fragalysis-2/maxwin/openbind-hippo/a71ev2a/openbind_a71ev2a_c1_scaffold_products.sdf', '/opt/xchem-fragalysis-2/maxwin/openbind-hippo/a71ev2a/cycle_01/bulkdock/openbind_a71ev2a_c1_scaffold_products.sdf', '/opt/xchem-fragalysis-2/maxwin/openbind-hippo/a71ev2a/cycle_01/bulkdock/openbind_a71ev2a_c1_scaffolds.sdf']

>  <fragmenstein_runtime>  (907) 
2.730559

$$$$
C25337-P198
     RDKit          3D

 17 18  0  0  0  0  0  0  0  0999 V2000
    9.5090    9.4244   23.2312 C   0  0  0  0  0  0  0  0  0  0  0  0
    8.3226    9.6784   24.1342 C   0  0  0  0  0  0  0  0  0  0  0  0
    7.7131    8.8081   24.6139 O   0  0  0  0  0  0  0  0  0  0  0  0
    8.1418   11.2139   24.2494 N   0  0  0  0  0  0  0  0  0  0  0  0
    7.1723   11.9466   24.8664 C   0  0  0  0  0  0  0  0  0  0  0  0
    6.9807   13.3004   24.8239 C   0  0  0  0  0  0  0  0  0  0  0  0
    5.7741   13.6753   25.4927 C   0  0  0  0  0  0  0  0  0  0  0  0
    5.0990   12.5956   26.0412 C   0  0  0  0  0  0  0  0  0  0  0  0
    3.7834   12.5102   26.7079 C   0  0  0  0  0  0  0  0  0  0  0  0
    3.2110   11.4954   26.7340 O   0  0  0  0  0  0  0  0  0  0  0  0
    3.3819   13.8976   27.2478 N   0  0  0  0  0  0  0  0  0  0  0  0
    2.1499   14.3490   27.8495 C   0  0  1  0  0  0  0  0  0  0  0  0
    0.9572   13.9889   26.9678 C   0  0  0  0  0  0  0  0  0  0  0  0
    2.1009   13.8492   29.2680 C   0  0  0  0  0  0  0  0  0  0  0  0
    1.7290   12.4274   29.6172 C   0  0  0  0  0  0  0  0  0  0  0  0
    0.8156   13.5573   30.0071 C   0  0  0  0  0  0  0  0  0  0  0  0
    5.9985   11.1481   25.7939 S   0  0  0  0  0  0  0  0  0  0  0  0
  1  2  1  0
  2  3  2  0
  2  4  1  0
  4  5  1  0
  5  6  2  0
  6  7  1  0
  7  8  2  0
  8  9  1  0
  9 10  2  0
  9 11  1  0
 11 12  1  0
 12 13  1  6
 12 14  1  0
 14 15  1  0
 15 16  1  0
  8 17  1  0
 17  5  1  0
 16 14  1  0
M  END
>  <ref_pdb>  (908) 
A3618a

>  <subsites>  (908) 
1 - Active Site

>  <HIPPO Compound ID>  (908) 
12320

>  <energy_score>  (908) 
-17.44705

>  <fragmenstein_mode>  (908) 
expansion

>  <scratch_subdir>  (908) 
/opt/xchem-fragalysis-2/maxwin/BulkDock/SCRATCH/512213/C25337-P198

>  <smiles>  (908) 
CC(=O)Nc1ccc(C(=O)N[C@@H](C)C2CC2)s1

>  <alias>  (908) 
C25337-P198

>  <ref_mols>  (908) 
A0310a,A3618a

>  <inspiration_score>  (908) 
None

>  <tags>  (908) 
BulkDock Fragalysis export,fragmenstein_placed,openbind_a71ev2a_c1_knitwork_impure,openbind_a71ev2a_c1_scaffolds

>  <fragmenstein_outcome>  (908) 
acceptable

>  <fragmenstein_error>  (908) 


>  <distance_score>  (908) 
0.940833

>  <inchikey>  (908) 
YFCVSAJHUPTKJW-UHFFFAOYSA-N

>  <name>  (908) 
C25337-P198

>  <HIPPO Pose ID>  (908) 
437722

>  <Energy>  (908) 
26.075324

>  <exports>  (908) 
['/opt/xchem-fragalysis-2/maxwin/BulkDock/OUTPUTS/openbind_a71ev2a_c1_knitwork_impure_165VXJF.sdf', '/opt/xchem-fragalysis-2/maxwin/BulkDock/OUTPUTS/openbind_a71ev2a_c1_knitwork_impure_1B07QS4.sdf', '/opt/xchem-fragalysis-2/maxwin/BulkDock/OUTPUTS/openbind_a71ev2a_c1_knitwork_impure_1B07X5R.sdf', '/opt/xchem-fragalysis-2/maxwin/openbind-hippo/a71ev2a/openbind_a71ev2a_c1_scaffold_products.sdf', '/opt/xchem-fragalysis-2/maxwin/openbind-hippo/a71ev2a/cycle_01/bulkdock/openbind_a71ev2a_c1_scaffold_products.sdf', '/opt/xchem-fragalysis-2/maxwin/openbind-hippo/a71ev2a/cycle_01/bulkdock/openbind_a71ev2a_c1_scaffolds.sdf']

>  <fragmenstein_runtime>  (908) 
2.450657

$$$$
C7479-P185
     RDKit          3D

 23 24  0  0  0  0  0  0  0  0999 V2000
    3.5364   12.0230   18.2275 C   0  0  0  0  0  0  0  0  0  0  0  0
    3.4423   12.3267   19.7211 C   0  0  0  0  0  0  0  0  0  0  0  0
    2.4991   11.3389   20.3997 C   0  0  0  0  0  0  0  0  0  0  0  0
    2.9969   13.7124   19.9467 C   0  0  0  0  0  0  0  0  0  0  0  0
    2.0387   14.1655   19.0838 O   0  0  0  0  0  0  0  0  0  0  0  0
    1.8364   15.4417   19.4589 C   0  0  0  0  0  0  0  0  0  0  0  0
    2.5588   15.8331   20.4859 N   0  0  0  0  0  0  0  0  0  0  0  0
    3.2840   14.7188   20.8498 C   0  0  0  0  0  0  0  0  0  0  0  0
    4.1621   14.7353   22.0654 C   0  0  0  0  0  0  0  0  0  0  0  0
    5.3773   15.4815   21.7858 N   0  0  0  0  0  0  0  0  0  0  0  0
    6.8378   14.7997   22.2100 S   0  0  0  0  0  0  0  0  0  0  0  0
    6.6880   13.4236   21.7516 O   0  0  0  0  0  0  0  0  0  0  0  0
    7.7908   15.5754   21.4452 O   0  0  0  0  0  0  0  0  0  0  0  0
    6.7654   15.0178   23.7277 N   0  0  0  0  0  0  0  0  0  0  0  0
    8.1333   14.8242   24.3997 S   0  0  2  0  0  0  0  0  0  0  0  0
    7.9371   15.3278   26.0963 C   0  0  0  0  0  0  0  0  0  0  0  0
    9.3688   15.4305   23.9553 O   0  0  0  0  0  0  0  0  0  0  0  0
    8.5334   13.0995   24.5726 C   0  0  0  0  0  0  0  0  0  0  0  0
    9.3071   12.6164   23.3564 C   0  0  0  0  0  0  0  0  0  0  0  0
    9.6610   11.1586   23.4119 C   0  0  0  0  0  0  0  0  0  0  0  0
    8.6803   10.2203   24.0668 C   0  0  0  0  0  0  0  0  0  0  0  0
    7.7385   10.8015   25.1107 C   0  0  0  0  0  0  0  0  0  0  0  0
    7.3243   12.2341   24.8676 C   0  0  0  0  0  0  0  0  0  0  0  0
  1  2  1  0
  2  3  1  0
  2  4  1  0
  4  5  1  0
  5  6  1  0
  6  7  2  0
  7  8  1  0
  8  9  1  0
  9 10  1  0
 10 11  1  0
 11 12  2  0
 11 13  2  0
 11 14  1  0
 14 15  2  0
 15 16  1  1
 15 17  2  0
 15 18  1  0
 18 19  1  0
 19 20  1  0
 20 21  1  0
 21 22  1  0
 22 23  1  0
  8  4  2  0
 23 18  1  0
M  END
>  <ref_pdb>  (909) 
A3480a

>  <subsites>  (909) 
1 - Active Site

>  <HIPPO Compound ID>  (909) 
9783

>  <energy_score>  (909) 
-233.921742

>  <fragmenstein_mode>  (909) 
expansion

>  <scratch_subdir>  (909) 
/opt/xchem-fragalysis-2/maxwin/BulkDock/SCRATCH/512213/C7479-P185

>  <smiles>  (909) 
CC(C)c1ocnc1CNS(=O)(=O)N=[S@](C)(=O)C1CCCCC1

>  <alias>  (909) 
C7479-P185

>  <ref_mols>  (909) 
A3623a,A3480a

>  <inspiration_score>  (909) 
None

>  <tags>  (909) 
BulkDock Fragalysis export,fragmenstein_placed,openbind_a71ev2a_c1_knitwork_impure,openbind_a71ev2a_c1_scaffolds

>  <fragmenstein_outcome>  (909) 
acceptable

>  <fragmenstein_error>  (909) 


>  <distance_score>  (909) 
0.842982

>  <inchikey>  (909) 
DCIDXVFUCNBFDV-UHFFFAOYSA-N

>  <name>  (909) 
C7479-P185

>  <HIPPO Pose ID>  (909) 
437768

>  <Energy>  (909) 
-237.47601

>  <exports>  (909) 
['/opt/xchem-fragalysis-2/maxwin/BulkDock/OUTPUTS/openbind_a71ev2a_c1_knitwork_impure_165VXJF.sdf', '/opt/xchem-fragalysis-2/maxwin/BulkDock/OUTPUTS/openbind_a71ev2a_c1_knitwork_impure_1B07QS4.sdf', '/opt/xchem-fragalysis-2/maxwin/BulkDock/OUTPUTS/openbind_a71ev2a_c1_knitwork_impure_1B07X5R.sdf', '/opt/xchem-fragalysis-2/maxwin/openbind-hippo/a71ev2a/openbind_a71ev2a_c1_scaffold_products.sdf', '/opt/xchem-fragalysis-2/maxwin/openbind-hippo/a71ev2a/cycle_01/bulkdock/openbind_a71ev2a_c1_scaffold_products.sdf', '/opt/xchem-fragalysis-2/maxwin/openbind-hippo/a71ev2a/cycle_01/bulkdock/openbind_a71ev2a_c1_scaffolds.sdf']

>  <fragmenstein_runtime>  (909) 
3.912424

$$$$
C8140-P441
     RDKit          3D

 16 16  0  0  0  0  0  0  0  0999 V2000
    6.5487   15.4928   24.6861 C   0  0  0  0  0  0  0  0  0  0  0  0
    6.4746   14.0396   25.1401 C   0  0  1  0  0  0  0  0  0  0  0  0
    7.7646   13.3562   24.9022 N   0  0  0  0  0  0  0  0  0  0  0  0
    8.3184   13.0981   23.3535 S   0  0  0  0  0  0  0  0  0  0  0  0
    7.1716   12.9945   22.4843 O   0  0  0  0  0  0  0  0  0  0  0  0
    9.2911   12.0376   23.4567 O   0  0  0  0  0  0  0  0  0  0  0  0
    9.1230   14.5397   23.1018 N   0  0  0  0  0  0  0  0  0  0  0  0
   10.4792   14.6607   23.6678 C   0  0  0  0  0  0  0  0  0  0  0  0
   11.5517   14.2692   22.6725 C   0  0  0  0  0  0  0  0  0  0  0  0
   11.4122   15.0581   21.3806 C   0  0  0  0  0  0  0  0  0  0  0  0
   10.0203   14.8641   20.7993 C   0  0  0  0  0  0  0  0  0  0  0  0
    8.9398   15.2355   21.7974 C   0  0  0  0  0  0  0  0  0  0  0  0
    6.0530   13.8575   26.6424 C   0  0  0  0  0  0  0  0  0  0  0  0
    6.0124   12.3542   26.9997 C   0  0  0  0  0  0  0  0  0  0  0  0
    4.6253   14.4072   26.8634 C   0  0  0  0  0  0  0  0  0  0  0  0
    6.9978   14.5866   27.6161 C   0  0  0  0  0  0  0  0  0  0  0  0
  2  1  1  1
  2  3  1  0
  3  4  1  0
  4  5  2  0
  4  6  2  0
  4  7  1  0
  7  8  1  0
  8  9  1  0
  9 10  1  0
 10 11  1  0
 11 12  1  0
  2 13  1  0
 13 14  1  0
 13 15  1  0
 13 16  1  0
 12  7  1  0
M  END
>  <ref_pdb>  (910) 
A4708a

>  <subsites>  (910) 
1 - Active Site

>  <HIPPO Compound ID>  (910) 
9801

>  <energy_score>  (910) 
-69.632009

>  <fragmenstein_mode>  (910) 
expansion

>  <scratch_subdir>  (910) 
/opt/xchem-fragalysis-2/maxwin/BulkDock/SCRATCH/512213/C8140-P441

>  <smiles>  (910) 
C[C@@H](NS(=O)(=O)N1CCCCC1)C(C)(C)C

>  <alias>  (910) 
C8140-P441

>  <ref_mols>  (910) 
A4708a,A0719a

>  <inspiration_score>  (910) 
None

>  <tags>  (910) 
BulkDock Fragalysis export,fragmenstein_placed,openbind_a71ev2a_c1_knitwork_impure,openbind_a71ev2a_c1_scaffolds

>  <fragmenstein_outcome>  (910) 
acceptable

>  <fragmenstein_error>  (910) 


>  <distance_score>  (910) 
0.799849

>  <inchikey>  (910) 
JJTOBGQZAVXZPQ-UHFFFAOYSA-N

>  <name>  (910) 
C8140-P441

>  <HIPPO Pose ID>  (910) 
438195

>  <Energy>  (910) 
-161.068626

>  <exports>  (910) 
['/opt/xchem-fragalysis-2/maxwin/BulkDock/OUTPUTS/openbind_a71ev2a_c1_knitwork_impure_165VXJF.sdf', '/opt/xchem-fragalysis-2/maxwin/BulkDock/OUTPUTS/openbind_a71ev2a_c1_knitwork_impure_1B07QS4.sdf', '/opt/xchem-fragalysis-2/maxwin/BulkDock/OUTPUTS/openbind_a71ev2a_c1_knitwork_impure_1B07X5R.sdf', '/opt/xchem-fragalysis-2/maxwin/openbind-hippo/a71ev2a/openbind_a71ev2a_c1_scaffold_products.sdf', '/opt/xchem-fragalysis-2/maxwin/openbind-hippo/a71ev2a/cycle_01/bulkdock/openbind_a71ev2a_c1_scaffold_products.sdf', '/opt/xchem-fragalysis-2/maxwin/openbind-hippo/a71ev2a/cycle_01/bulkdock/openbind_a71ev2a_c1_scaffolds.sdf']

>  <fragmenstein_runtime>  (910) 
9.241263

$$$$
C8169-P441
     RDKit          3D

 14 14  0  0  0  0  0  0  0  0999 V2000
    6.7925   13.1448   22.4361 O   0  0  0  0  0  0  0  0  0  0  0  0
    7.5983   13.9032   23.3642 S   0  0  0  0  0  0  0  0  0  0  0  0
    7.1734   15.1589   23.9259 O   0  0  0  0  0  0  0  0  0  0  0  0
    7.9272   12.9429   24.7086 N   0  0  0  0  0  0  0  0  0  0  0  0
    6.9615   11.8481   24.8998 C   0  0  0  0  0  0  0  0  0  0  0  0
    6.7827   11.4492   26.3505 C   0  0  0  0  0  0  0  0  0  0  0  0
    5.9169   12.4118   27.1555 C   0  0  0  0  0  0  0  0  0  0  0  0
    6.6907   13.9957   27.3725 Cl  0  0  0  0  0  0  0  0  0  0  0  0
    9.1113   14.0913   22.6675 N   0  0  0  0  0  0  0  0  0  0  0  0
   10.2361   14.4081   23.5634 C   0  0  0  0  0  0  0  0  0  0  0  0
   11.5464   14.3475   22.7930 C   0  0  0  0  0  0  0  0  0  0  0  0
   11.5405   15.3091   21.6149 C   0  0  0  0  0  0  0  0  0  0  0  0
   10.3485   15.0310   20.7139 C   0  0  0  0  0  0  0  0  0  0  0  0
    9.0458   15.0284   21.4960 C   0  0  0  0  0  0  0  0  0  0  0  0
  1  2  2  0
  2  3  2  0
  2  4  1  0
  4  5  1  0
  5  6  1  0
  6  7  1  0
  7  8  1  0
  2  9  1  0
  9 10  1  0
 10 11  1  0
 11 12  1  0
 12 13  1  0
 13 14  1  0
 14  9  1  0
M  END
>  <ref_pdb>  (911) 
A4708a

>  <subsites>  (911) 
1 - Active Site

>  <HIPPO Compound ID>  (911) 
8857

>  <energy_score>  (911) 
-65.659332

>  <fragmenstein_mode>  (911) 
expansion

>  <scratch_subdir>  (911) 
/opt/xchem-fragalysis-2/maxwin/BulkDock/SCRATCH/512213/C8169-P441

>  <smiles>  (911) 
O=S(=O)(NCCCCl)N1CCCCC1

>  <alias>  (911) 
C8169-P441

>  <ref_mols>  (911) 
A4708a,A0719a

>  <inspiration_score>  (911) 
None

>  <tags>  (911) 
BulkDock Fragalysis export,fragmenstein_placed,openbind_a71ev2a_c1_knitwork_impure,openbind_a71ev2a_c1_scaffolds

>  <fragmenstein_outcome>  (911) 
acceptable

>  <fragmenstein_error>  (911) 


>  <distance_score>  (911) 
0.681981

>  <inchikey>  (911) 
XGCYOVHIYMBSNK-UHFFFAOYSA-N

>  <name>  (911) 
C8169-P441

>  <HIPPO Pose ID>  (911) 
438206

>  <Energy>  (911) 
-181.418461

>  <exports>  (911) 
['/opt/xchem-fragalysis-2/maxwin/BulkDock/OUTPUTS/openbind_a71ev2a_c1_knitwork_impure_165VXJF.sdf', '/opt/xchem-fragalysis-2/maxwin/BulkDock/OUTPUTS/openbind_a71ev2a_c1_knitwork_impure_1B07QS4.sdf', '/opt/xchem-fragalysis-2/maxwin/BulkDock/OUTPUTS/openbind_a71ev2a_c1_knitwork_impure_1B07X5R.sdf', '/opt/xchem-fragalysis-2/maxwin/openbind-hippo/a71ev2a/openbind_a71ev2a_c1_scaffold_products.sdf', '/opt/xchem-fragalysis-2/maxwin/openbind-hippo/a71ev2a/cycle_01/bulkdock/openbind_a71ev2a_c1_scaffold_products.sdf', '/opt/xchem-fragalysis-2/maxwin/openbind-hippo/a71ev2a/cycle_01/bulkdock/openbind_a71ev2a_c1_scaffolds.sdf']

>  <fragmenstein_runtime>  (911) 
1.92306

$$$$
C4790-P373
     RDKit          3D

 10 11  0  0  0  0  0  0  0  0999 V2000
    8.1452   14.0383   24.8035 C   0  0  0  0  0  0  0  0  0  0  0  0
    7.6164   12.8976   25.2614 C   0  0  0  0  0  0  0  0  0  0  0  0
    7.9691   11.5620   24.9582 C   0  0  0  0  0  0  0  0  0  0  0  0
    7.4243   10.3773   25.4890 C   0  0  0  0  0  0  0  0  0  0  0  0
    7.9971    9.2843   24.9899 N   0  0  0  0  0  0  0  0  0  0  0  0
    8.8914    9.7618   24.1022 N   0  0  0  0  0  0  0  0  0  0  0  0
    8.9244   11.1304   24.0657 C   0  0  0  0  0  0  0  0  0  0  0  0
    6.5147   13.1487   26.2486 C   0  0  0  0  0  0  0  0  0  0  0  0
    6.2303   14.6391   26.0485 C   0  0  0  0  0  0  0  0  0  0  0  0
    7.4828   15.2319   25.4049 C   0  0  0  0  0  0  0  0  0  0  0  0
  1  2  2  0
  2  3  1  0
  3  4  1  0
  4  5  2  0
  5  6  1  0
  6  7  1  0
  2  8  1  0
  8  9  1  0
  9 10  1  0
 10  1  1  0
  7  3  2  0
M  END
>  <ref_pdb>  (912) 
A4461a

>  <subsites>  (912) 
1 - Active Site

>  <HIPPO Compound ID>  (912) 
8929

>  <energy_score>  (912) 
-17.91422

>  <fragmenstein_mode>  (912) 
expansion

>  <scratch_subdir>  (912) 
/opt/xchem-fragalysis-2/maxwin/BulkDock/SCRATCH/512213/C4790-P373

>  <smiles>  (912) 
C1=C(c2cn[nH]c2)CCC1

>  <alias>  (912) 
C4790-P373

>  <ref_mols>  (912) 
A0556a,A4461a

>  <inspiration_score>  (912) 
None

>  <tags>  (912) 
BulkDock Fragalysis export,fragmenstein_placed,openbind_a71ev2a_c1_knitwork_impure,openbind_a71ev2a_c1_scaffolds

>  <fragmenstein_outcome>  (912) 
acceptable

>  <fragmenstein_error>  (912) 


>  <distance_score>  (912) 
0.914657

>  <inchikey>  (912) 
GUENUKMUPWZNRC-UHFFFAOYSA-N

>  <name>  (912) 
C4790-P373

>  <HIPPO Pose ID>  (912) 
438249

>  <Energy>  (912) 
12.3692

>  <exports>  (912) 
['/opt/xchem-fragalysis-2/maxwin/BulkDock/OUTPUTS/openbind_a71ev2a_c1_knitwork_impure_165VXJF.sdf', '/opt/xchem-fragalysis-2/maxwin/BulkDock/OUTPUTS/openbind_a71ev2a_c1_knitwork_impure_1B07QS4.sdf', '/opt/xchem-fragalysis-2/maxwin/BulkDock/OUTPUTS/openbind_a71ev2a_c1_knitwork_impure_1B07X5R.sdf', '/opt/xchem-fragalysis-2/maxwin/openbind-hippo/a71ev2a/openbind_a71ev2a_c1_scaffold_products.sdf', '/opt/xchem-fragalysis-2/maxwin/openbind-hippo/a71ev2a/cycle_01/bulkdock/openbind_a71ev2a_c1_scaffold_products.sdf', '/opt/xchem-fragalysis-2/maxwin/openbind-hippo/a71ev2a/cycle_01/bulkdock/openbind_a71ev2a_c1_scaffolds.sdf']

>  <fragmenstein_runtime>  (912) 
1.301602

$$$$
C9370-P619
     RDKit          3D

 15 15  0  0  0  0  0  0  0  0999 V2000
    5.6607   13.6302   26.0912 C   0  0  0  0  0  0  0  0  0  0  0  0
    6.6133   12.5917   25.5239 C   0  0  0  0  0  0  0  0  0  0  0  0
    6.9995   12.8726   24.1815 O   0  0  0  0  0  0  0  0  0  0  0  0
    7.8513   14.0600   24.1321 N   0  0  0  0  0  0  0  0  0  0  0  0
    7.1082   15.0944   23.4262 C   0  0  0  0  0  0  0  0  0  0  0  0
    6.4669   14.6355   22.1255 C   0  0  0  0  0  0  0  0  0  0  0  0
    9.4973   13.7379   23.9042 S   0  0  1  0  0  0  0  0  0  0  0  0
   10.0532   14.1750   25.2608 N   0  0  0  0  0  0  0  0  0  0  0  0
    9.5757   12.4162   23.3345 O   0  0  0  0  0  0  0  0  0  0  0  0
   10.1898   14.7947   22.7999 N   0  0  0  0  0  0  0  0  0  0  0  0
   11.6446   14.9268   22.7923 C   0  0  0  0  0  0  0  0  0  0  0  0
   11.9067   15.8734   21.6457 C   0  0  0  0  0  0  0  0  0  0  0  0
   10.9708   15.3459   20.5867 C   0  0  0  0  0  0  0  0  0  0  0  0
    9.7870   14.8256   21.3899 C   0  0  0  0  0  0  0  0  0  0  0  0
    9.2756   14.1925   25.9143 H   0  0  0  0  0  0  0  0  0  0  0  0
  1  2  1  0
  2  3  1  0
  3  4  1  0
  4  5  1  0
  5  6  1  0
  7  4  1  1
  7  8  2  0
  7  9  2  0
  7 10  1  0
 10 11  1  0
 11 12  1  0
 12 13  1  0
 13 14  1  0
 14 10  1  0
  8 15  1  0
M  END
>  <ref_pdb>  (913) 
A5427a

>  <subsites>  (913) 
1 - Active Site

>  <HIPPO Compound ID>  (913) 
29686

>  <energy_score>  (913) 
-69.029981

>  <fragmenstein_mode>  (913) 
expansion

>  <scratch_subdir>  (913) 
/opt/xchem-fragalysis-2/maxwin/BulkDock/SCRATCH/512213/C9370-P619

>  <smiles>  (913) 
[H]N=[S@](=O)(N1CCCC1)N(CC)OCC

>  <alias>  (913) 
C9370-P619

>  <ref_mols>  (913) 
A5427a,A0719a

>  <inspiration_score>  (913) 
None

>  <tags>  (913) 
BulkDock Fragalysis export,fragmenstein_placed,openbind_a71ev2a_c1_knitwork_impure,openbind_a71ev2a_c1_scaffolds

>  <fragmenstein_outcome>  (913) 
acceptable

>  <fragmenstein_error>  (913) 


>  <distance_score>  (913) 
0.98158

>  <inchikey>  (913) 
ADCBIDCUFYHYHT-UHFFFAOYSA-N

>  <name>  (913) 
C9370-P619

>  <HIPPO Pose ID>  (913) 
438351

>  <Energy>  (913) 
-124.689106

>  <exports>  (913) 
['/opt/xchem-fragalysis-2/maxwin/BulkDock/OUTPUTS/openbind_a71ev2a_c1_knitwork_impure_165VXJF.sdf', '/opt/xchem-fragalysis-2/maxwin/BulkDock/OUTPUTS/openbind_a71ev2a_c1_knitwork_impure_1B07QS4.sdf', '/opt/xchem-fragalysis-2/maxwin/BulkDock/OUTPUTS/openbind_a71ev2a_c1_knitwork_impure_1B07X5R.sdf', '/opt/xchem-fragalysis-2/maxwin/openbind-hippo/a71ev2a/openbind_a71ev2a_c1_scaffold_products.sdf', '/opt/xchem-fragalysis-2/maxwin/openbind-hippo/a71ev2a/cycle_01/bulkdock/openbind_a71ev2a_c1_scaffold_products.sdf', '/opt/xchem-fragalysis-2/maxwin/openbind-hippo/a71ev2a/cycle_01/bulkdock/openbind_a71ev2a_c1_scaffolds.sdf']

>  <fragmenstein_runtime>  (913) 
2.681913

$$$$
C9371-P619
     RDKit          3D

 14 14  0  0  0  0  0  0  0  0999 V2000
   11.0626   15.1707   20.3206 C   0  0  0  0  0  0  0  0  0  0  0  0
   11.6959   15.4162   21.4737 C   0  0  0  0  0  0  0  0  0  0  0  0
   11.1917   15.1362   22.8575 C   0  0  0  0  0  0  0  0  0  0  0  0
    9.7208   14.7256   22.9747 C   0  0  0  0  0  0  0  0  0  0  0  0
    9.3369   14.5449   24.4282 C   0  0  0  0  0  0  0  0  0  0  0  0
   10.1861   14.5206   25.3324 O   0  0  0  0  0  0  0  0  0  0  0  0
    7.8559   14.3199   24.8175 C   0  0  2  0  0  0  0  0  0  0  0  0
    6.9053   15.3024   24.1427 C   0  0  0  0  0  0  0  0  0  0  0  0
    7.7887   14.6167   26.2322 O   0  0  0  0  0  0  0  0  0  0  0  0
    7.3961   12.8678   24.5741 C   0  0  1  0  0  0  0  0  0  0  0  0
    8.4897   11.8167   24.6012 C   0  0  0  0  0  0  0  0  0  0  0  0
    7.7594   10.5188   24.8598 C   0  0  0  0  0  0  0  0  0  0  0  0
    6.4902   10.8641   25.4877 N   0  0  0  0  0  0  0  0  0  0  0  0
    6.4404   12.3220   25.6370 C   0  0  0  0  0  0  0  0  0  0  0  0
  1  2  2  0
  2  3  1  0
  3  4  1  0
  4  5  1  0
  5  6  2  0
  5  7  1  0
  7  8  1  6
  7  9  1  0
  7 10  1  0
 10 11  1  1
 11 12  1  0
 12 13  1  0
 13 14  1  0
 14 10  1  0
M  END
>  <ref_pdb>  (914) 
A5427a

>  <subsites>  (914) 
1 - Active Site

>  <HIPPO Compound ID>  (914) 
6027

>  <energy_score>  (914) 
-30.746723

>  <fragmenstein_mode>  (914) 
expansion

>  <scratch_subdir>  (914) 
/opt/xchem-fragalysis-2/maxwin/BulkDock/SCRATCH/512213/C9371-P619

>  <smiles>  (914) 
C=CCCC(=O)[C@](C)(O)[C@H]1CCNC1

>  <alias>  (914) 
C9371-P619

>  <ref_mols>  (914) 
A5427a,A0719a

>  <inspiration_score>  (914) 
None

>  <tags>  (914) 
BulkDock Fragalysis export,fragmenstein_placed,openbind_a71ev2a_c1_knitwork_impure,openbind_a71ev2a_c1_scaffolds

>  <fragmenstein_outcome>  (914) 
acceptable

>  <fragmenstein_error>  (914) 


>  <distance_score>  (914) 
0.835853

>  <inchikey>  (914) 
HISKBNLAAGHDBQ-UHFFFAOYSA-N

>  <name>  (914) 
C9371-P619

>  <HIPPO Pose ID>  (914) 
438352

>  <Energy>  (914) 
45.996326

>  <exports>  (914) 
['/opt/xchem-fragalysis-2/maxwin/BulkDock/OUTPUTS/openbind_a71ev2a_c1_knitwork_impure_165VXJF.sdf', '/opt/xchem-fragalysis-2/maxwin/BulkDock/OUTPUTS/openbind_a71ev2a_c1_knitwork_impure_1B07QS4.sdf', '/opt/xchem-fragalysis-2/maxwin/BulkDock/OUTPUTS/openbind_a71ev2a_c1_knitwork_impure_1B07X5R.sdf', '/opt/xchem-fragalysis-2/maxwin/openbind-hippo/a71ev2a/openbind_a71ev2a_c1_scaffold_products.sdf', '/opt/xchem-fragalysis-2/maxwin/openbind-hippo/a71ev2a/cycle_01/bulkdock/openbind_a71ev2a_c1_scaffold_products.sdf', '/opt/xchem-fragalysis-2/maxwin/openbind-hippo/a71ev2a/cycle_01/bulkdock/openbind_a71ev2a_c1_scaffolds.sdf']

>  <fragmenstein_runtime>  (914) 
2.516354

$$$$
C9379-P619
     RDKit          3D

 14 14  0  0  0  0  0  0  0  0999 V2000
   12.2184   15.2435   22.7138 C   0  0  0  0  0  0  0  0  0  0  0  0
   11.6656   15.5295   21.3379 C   0  0  0  0  0  0  0  0  0  0  0  0
   10.4878   14.6351   20.9978 C   0  0  0  0  0  0  0  0  0  0  0  0
    9.1415   15.1757   21.4449 C   0  0  0  0  0  0  0  0  0  0  0  0
    8.9715   15.3927   22.9455 C   0  0  0  0  0  0  0  0  0  0  0  0
    8.9368   14.1134   23.7815 C   0  0  1  0  0  0  0  0  0  0  0  0
   10.0675   13.9994   24.6418 O   0  0  0  0  0  0  0  0  0  0  0  0
    7.6818   14.1205   24.6551 C   0  0  0  0  0  0  0  0  0  0  0  0
    7.2546   15.1503   25.1802 O   0  0  0  0  0  0  0  0  0  0  0  0
    6.9461   12.8000   24.7769 C   0  0  2  0  0  0  0  0  0  0  0  0
    5.8732   12.8219   25.8626 C   0  0  0  0  0  0  0  0  0  0  0  0
    5.9909   11.4860   26.5721 C   0  0  0  0  0  0  0  0  0  0  0  0
    6.9347   10.6810   25.7093 C   0  0  0  0  0  0  0  0  0  0  0  0
    7.8431   11.6846   25.1557 N   0  0  0  0  0  0  0  0  0  0  0  0
  1  2  1  0
  2  3  1  0
  3  4  1  0
  4  5  1  0
  5  6  1  0
  6  7  1  1
  6  8  1  0
  8  9  2  0
 10  8  1  1
 10 11  1  0
 11 12  1  0
 12 13  1  0
 13 14  1  0
 14 10  1  0
M  END
>  <ref_pdb>  (915) 
A5427a

>  <subsites>  (915) 
1 - Active Site

>  <HIPPO Compound ID>  (915) 
1399

>  <energy_score>  (915) 
-32.50153

>  <fragmenstein_mode>  (915) 
expansion

>  <scratch_subdir>  (915) 
/opt/xchem-fragalysis-2/maxwin/BulkDock/SCRATCH/512213/C9379-P619

>  <smiles>  (915) 
CCCCC[C@@H](O)C(=O)[C@@H]1CCCN1

>  <alias>  (915) 
C9379-P619

>  <ref_mols>  (915) 
A5427a,A0719a

>  <inspiration_score>  (915) 
None

>  <tags>  (915) 
BulkDock Fragalysis export,fragmenstein_placed,openbind_a71ev2a_c1_knitwork_impure,openbind_a71ev2a_c1_scaffolds

>  <fragmenstein_outcome>  (915) 
acceptable

>  <fragmenstein_error>  (915) 


>  <distance_score>  (915) 
0.954263

>  <inchikey>  (915) 
HXJSUAIOIMKJMI-UHFFFAOYSA-N

>  <name>  (915) 
C9379-P619

>  <HIPPO Pose ID>  (915) 
438356

>  <Energy>  (915) 
73.417026

>  <exports>  (915) 
['/opt/xchem-fragalysis-2/maxwin/BulkDock/OUTPUTS/openbind_a71ev2a_c1_knitwork_impure_165VXJF.sdf', '/opt/xchem-fragalysis-2/maxwin/BulkDock/OUTPUTS/openbind_a71ev2a_c1_knitwork_impure_1B07QS4.sdf', '/opt/xchem-fragalysis-2/maxwin/BulkDock/OUTPUTS/openbind_a71ev2a_c1_knitwork_impure_1B07X5R.sdf', '/opt/xchem-fragalysis-2/maxwin/openbind-hippo/a71ev2a/openbind_a71ev2a_c1_scaffold_products.sdf', '/opt/xchem-fragalysis-2/maxwin/openbind-hippo/a71ev2a/cycle_01/bulkdock/openbind_a71ev2a_c1_scaffold_products.sdf', '/opt/xchem-fragalysis-2/maxwin/openbind-hippo/a71ev2a/cycle_01/bulkdock/openbind_a71ev2a_c1_scaffolds.sdf']

>  <fragmenstein_runtime>  (915) 
5.450218

$$$$
C9380-P619
     RDKit          3D

 13 13  0  0  0  0  0  0  0  0999 V2000
    6.7806   10.2135   25.5033 C   0  0  0  0  0  0  0  0  0  0  0  0
    8.0296   10.7769   24.8347 C   0  0  0  0  0  0  0  0  0  0  0  0
    8.7728    9.7438   24.0061 C   0  0  0  0  0  0  0  0  0  0  0  0
    7.7766   11.8977   23.9909 O   0  0  0  0  0  0  0  0  0  0  0  0
    7.2647   13.0193   24.7023 C   0  0  0  0  0  0  0  0  0  0  0  0
    7.6253   14.3819   24.1005 C   0  0  2  0  0  0  0  0  0  0  0  0
    6.9008   14.6105   22.8968 O   0  0  0  0  0  0  0  0  0  0  0  0
    9.1430   14.7028   24.0212 C   0  0  0  0  0  0  0  0  0  0  0  0
    9.9499   14.2719   22.8750 N   0  0  0  0  0  0  0  0  0  0  0  0
   11.3708   14.6361   23.0399 C   0  0  0  0  0  0  0  0  0  0  0  0
   11.7077   15.6136   21.9282 C   0  0  0  0  0  0  0  0  0  0  0  0
   10.7753   15.1876   20.8224 C   0  0  0  0  0  0  0  0  0  0  0  0
    9.5094   14.8593   21.5936 C   0  0  0  0  0  0  0  0  0  0  0  0
  1  2  1  0
  2  3  1  0
  2  4  1  0
  4  5  1  0
  5  6  1  0
  6  7  1  6
  6  8  1  0
  8  9  1  0
  9 10  1  0
 10 11  1  0
 11 12  1  0
 12 13  1  0
 13  9  1  0
M  END
>  <ref_pdb>  (916) 
A5427a

>  <subsites>  (916) 
1 - Active Site

>  <HIPPO Compound ID>  (916) 
21083

>  <energy_score>  (916) 
-12.761462

>  <fragmenstein_mode>  (916) 
expansion

>  <scratch_subdir>  (916) 
/opt/xchem-fragalysis-2/maxwin/BulkDock/SCRATCH/512213/C9380-P619

>  <smiles>  (916) 
CC(C)OC[C@H](O)CN1CCCC1

>  <alias>  (916) 
C9380-P619

>  <ref_mols>  (916) 
A5427a,A0719a

>  <inspiration_score>  (916) 
None

>  <tags>  (916) 
BulkDock Fragalysis export,fragmenstein_placed,openbind_a71ev2a_c1_knitwork_impure,openbind_a71ev2a_c1_scaffolds

>  <fragmenstein_outcome>  (916) 
acceptable

>  <fragmenstein_error>  (916) 


>  <distance_score>  (916) 
0.933271

>  <inchikey>  (916) 
YCXUBEVMZITSJB-UHFFFAOYSA-N

>  <name>  (916) 
C9380-P619

>  <HIPPO Pose ID>  (916) 
438357

>  <Energy>  (916) 
73.427029

>  <exports>  (916) 
['/opt/xchem-fragalysis-2/maxwin/BulkDock/OUTPUTS/openbind_a71ev2a_c1_knitwork_impure_165VXJF.sdf', '/opt/xchem-fragalysis-2/maxwin/BulkDock/OUTPUTS/openbind_a71ev2a_c1_knitwork_impure_1B07QS4.sdf', '/opt/xchem-fragalysis-2/maxwin/BulkDock/OUTPUTS/openbind_a71ev2a_c1_knitwork_impure_1B07X5R.sdf', '/opt/xchem-fragalysis-2/maxwin/openbind-hippo/a71ev2a/openbind_a71ev2a_c1_scaffold_products.sdf', '/opt/xchem-fragalysis-2/maxwin/openbind-hippo/a71ev2a/cycle_01/bulkdock/openbind_a71ev2a_c1_scaffold_products.sdf', '/opt/xchem-fragalysis-2/maxwin/openbind-hippo/a71ev2a/cycle_01/bulkdock/openbind_a71ev2a_c1_scaffolds.sdf']

>  <fragmenstein_runtime>  (916) 
3.352687

$$$$
C9385-P619
     RDKit          3D

 12 12  0  0  0  0  0  0  0  0999 V2000
   11.5012   14.7817   22.5311 C   0  0  0  0  0  0  0  0  0  0  0  0
   10.0107   14.7846   22.6748 C   0  0  0  0  0  0  0  0  0  0  0  0
    9.2380   15.1308   21.7903 O   0  0  0  0  0  0  0  0  0  0  0  0
    9.4642   14.3636   24.0278 C   0  0  0  0  0  0  0  0  0  0  0  0
   10.2584   14.0739   24.9224 O   0  0  0  0  0  0  0  0  0  0  0  0
    7.9406   14.4268   24.2230 C   0  0  1  0  0  0  0  0  0  0  0  0
    7.1097   14.3214   23.0821 O   0  0  0  0  0  0  0  0  0  0  0  0
    7.5579   13.3400   25.2461 C   0  0  1  0  0  0  0  0  0  0  0  0
    6.0913   13.3185   25.6446 C   0  0  0  0  0  0  0  0  0  0  0  0
    5.9721   11.9806   26.3512 C   0  0  0  0  0  0  0  0  0  0  0  0
    6.9343   11.0752   25.6024 C   0  0  0  0  0  0  0  0  0  0  0  0
    7.7908   11.9500   24.8095 N   0  0  0  0  0  0  0  0  0  0  0  0
  1  2  1  0
  2  3  2  0
  2  4  1  0
  4  5  2  0
  4  6  1  0
  6  7  1  6
  6  8  1  0
  8  9  1  6
  9 10  1  0
 10 11  1  0
 11 12  1  0
 12  8  1  0
M  END
>  <ref_pdb>  (917) 
A5427a

>  <subsites>  (917) 
1 - Active Site

>  <HIPPO Compound ID>  (917) 
27042

>  <energy_score>  (917) 
-34.58954

>  <fragmenstein_mode>  (917) 
expansion

>  <scratch_subdir>  (917) 
/opt/xchem-fragalysis-2/maxwin/BulkDock/SCRATCH/512213/C9385-P619

>  <smiles>  (917) 
CC(=O)C(=O)[C@@H](O)[C@H]1CCCN1

>  <alias>  (917) 
C9385-P619

>  <ref_mols>  (917) 
A5427a,A0719a

>  <inspiration_score>  (917) 
None

>  <tags>  (917) 
BulkDock Fragalysis export,fragmenstein_placed,openbind_a71ev2a_c1_knitwork_impure,openbind_a71ev2a_c1_scaffolds

>  <fragmenstein_outcome>  (917) 
acceptable

>  <fragmenstein_error>  (917) 


>  <distance_score>  (917) 
0.922455

>  <inchikey>  (917) 
SRBFBJJNWAODEI-UHFFFAOYSA-N

>  <name>  (917) 
C9385-P619

>  <HIPPO Pose ID>  (917) 
438359

>  <Energy>  (917) 
72.949169

>  <exports>  (917) 
['/opt/xchem-fragalysis-2/maxwin/BulkDock/OUTPUTS/openbind_a71ev2a_c1_knitwork_impure_165VXJF.sdf', '/opt/xchem-fragalysis-2/maxwin/BulkDock/OUTPUTS/openbind_a71ev2a_c1_knitwork_impure_1B07QS4.sdf', '/opt/xchem-fragalysis-2/maxwin/BulkDock/OUTPUTS/openbind_a71ev2a_c1_knitwork_impure_1B07X5R.sdf', '/opt/xchem-fragalysis-2/maxwin/openbind-hippo/a71ev2a/openbind_a71ev2a_c1_scaffold_products.sdf', '/opt/xchem-fragalysis-2/maxwin/openbind-hippo/a71ev2a/cycle_01/bulkdock/openbind_a71ev2a_c1_scaffold_products.sdf', '/opt/xchem-fragalysis-2/maxwin/openbind-hippo/a71ev2a/cycle_01/bulkdock/openbind_a71ev2a_c1_scaffolds.sdf']

>  <fragmenstein_runtime>  (917) 
1.824088

$$$$
C9390-P619
     RDKit          3D

 14 14  0  0  0  0  0  0  0  0999 V2000
   11.0037   15.0729   20.8453 C   0  0  0  0  0  0  0  0  0  0  0  0
   10.9316   14.5899   22.2951 C   0  0  0  0  0  0  0  0  0  0  0  0
   11.9123   15.4133   23.0975 C   0  0  0  0  0  0  0  0  0  0  0  0
    9.4911   14.7235   22.8092 C   0  0  0  0  0  0  0  0  0  0  0  0
    9.2664   14.3618   24.2717 C   0  0  0  0  0  0  0  0  0  0  0  0
   10.1929   14.0621   25.0311 O   0  0  0  0  0  0  0  0  0  0  0  0
    7.7998   14.3609   24.7887 C   0  0  1  0  0  0  0  0  0  0  0  0
    7.8057   15.0167   26.1778 C   0  0  0  0  0  0  0  0  0  0  0  0
    6.9720   15.2376   24.0181 O   0  0  0  0  0  0  0  0  0  0  0  0
    7.1903   12.9363   24.7415 C   0  0  1  0  0  0  0  0  0  0  0  0
    8.1631   11.7653   24.7213 C   0  0  0  0  0  0  0  0  0  0  0  0
    7.3681   10.5820   25.2349 C   0  0  0  0  0  0  0  0  0  0  0  0
    6.1491   11.1150   25.8265 N   0  0  0  0  0  0  0  0  0  0  0  0
    6.2933   12.5647   25.9215 C   0  0  0  0  0  0  0  0  0  0  0  0
  1  2  1  0
  2  3  1  0
  2  4  1  0
  4  5  1  0
  5  6  2  0
  5  7  1  0
  7  8  1  1
  7  9  1  0
  7 10  1  0
 10 11  1  1
 11 12  1  0
 12 13  1  0
 13 14  1  0
 14 10  1  0
M  END
>  <ref_pdb>  (918) 
A5427a

>  <subsites>  (918) 
1 - Active Site

>  <HIPPO Compound ID>  (918) 
28490

>  <energy_score>  (918) 
-16.727462

>  <fragmenstein_mode>  (918) 
expansion

>  <scratch_subdir>  (918) 
/opt/xchem-fragalysis-2/maxwin/BulkDock/SCRATCH/512213/C9390-P619

>  <smiles>  (918) 
CC(C)CC(=O)[C@@](C)(O)[C@H]1CCNC1

>  <alias>  (918) 
C9390-P619

>  <ref_mols>  (918) 
A5427a,A0719a

>  <inspiration_score>  (918) 
None

>  <tags>  (918) 
BulkDock Fragalysis export,fragmenstein_placed,openbind_a71ev2a_c1_knitwork_impure,openbind_a71ev2a_c1_scaffolds

>  <fragmenstein_outcome>  (918) 
acceptable

>  <fragmenstein_error>  (918) 


>  <distance_score>  (918) 
0.957701

>  <inchikey>  (918) 
FEMUIDDNNZKUSG-UHFFFAOYSA-N

>  <name>  (918) 
C9390-P619

>  <HIPPO Pose ID>  (918) 
438362

>  <Energy>  (918) 
50.584008

>  <exports>  (918) 
['/opt/xchem-fragalysis-2/maxwin/BulkDock/OUTPUTS/openbind_a71ev2a_c1_knitwork_impure_165VXJF.sdf', '/opt/xchem-fragalysis-2/maxwin/BulkDock/OUTPUTS/openbind_a71ev2a_c1_knitwork_impure_1B07QS4.sdf', '/opt/xchem-fragalysis-2/maxwin/BulkDock/OUTPUTS/openbind_a71ev2a_c1_knitwork_impure_1B07X5R.sdf', '/opt/xchem-fragalysis-2/maxwin/openbind-hippo/a71ev2a/openbind_a71ev2a_c1_scaffold_products.sdf', '/opt/xchem-fragalysis-2/maxwin/openbind-hippo/a71ev2a/cycle_01/bulkdock/openbind_a71ev2a_c1_scaffold_products.sdf', '/opt/xchem-fragalysis-2/maxwin/openbind-hippo/a71ev2a/cycle_01/bulkdock/openbind_a71ev2a_c1_scaffolds.sdf']

>  <fragmenstein_runtime>  (918) 
3.420233

$$$$
C9394-P619
     RDKit          3D

 13 13  0  0  0  0  0  0  0  0999 V2000
    7.3481    9.8866   24.9837 C   0  0  0  0  0  0  0  0  0  0  0  0
    6.6134   10.4771   25.9353 C   0  0  0  0  0  0  0  0  0  0  0  0
    6.2881   11.9371   26.0945 C   0  0  0  0  0  0  0  0  0  0  0  0
    6.5610   12.7450   24.9595 O   0  0  0  0  0  0  0  0  0  0  0  0
    7.9394   12.9251   24.6472 C   0  0  0  0  0  0  0  0  0  0  0  0
    8.3614   14.3762   24.8510 C   0  0  1  0  0  0  0  0  0  0  0  0
    8.1467   14.7092   26.2362 O   0  0  0  0  0  0  0  0  0  0  0  0
    9.8584   14.5176   24.4859 C   0  0  0  0  0  0  0  0  0  0  0  0
   10.1699   15.1129   23.1884 N   0  0  0  0  0  0  0  0  0  0  0  0
   11.5658   14.9142   22.7954 C   0  0  0  0  0  0  0  0  0  0  0  0
   11.5948   15.5156   21.4049 C   0  0  0  0  0  0  0  0  0  0  0  0
   10.1947   15.2702   20.8586 C   0  0  0  0  0  0  0  0  0  0  0  0
    9.4142   14.6654   22.0221 C   0  0  0  0  0  0  0  0  0  0  0  0
  1  2  2  0
  2  3  1  0
  3  4  1  0
  4  5  1  0
  5  6  1  0
  6  7  1  1
  6  8  1  0
  8  9  1  0
  9 10  1  0
 10 11  1  0
 11 12  1  0
 12 13  1  0
 13  9  1  0
M  END
>  <ref_pdb>  (919) 
A5427a

>  <subsites>  (919) 
1 - Active Site

>  <HIPPO Compound ID>  (919) 
8760

>  <energy_score>  (919) 
-27.014955

>  <fragmenstein_mode>  (919) 
expansion

>  <scratch_subdir>  (919) 
/opt/xchem-fragalysis-2/maxwin/BulkDock/SCRATCH/512213/C9394-P619

>  <smiles>  (919) 
C=CCOC[C@@H](O)CN1CCCC1

>  <alias>  (919) 
C9394-P619

>  <ref_mols>  (919) 
A5427a,A0719a

>  <inspiration_score>  (919) 
None

>  <tags>  (919) 
BulkDock Fragalysis export,fragmenstein_placed,openbind_a71ev2a_c1_knitwork_impure,openbind_a71ev2a_c1_scaffolds

>  <fragmenstein_outcome>  (919) 
acceptable

>  <fragmenstein_error>  (919) 


>  <distance_score>  (919) 
0.991585

>  <inchikey>  (919) 
CTZSCWGDEJRQJB-UHFFFAOYSA-N

>  <name>  (919) 
C9394-P619

>  <HIPPO Pose ID>  (919) 
438363

>  <Energy>  (919) 
63.930327

>  <exports>  (919) 
['/opt/xchem-fragalysis-2/maxwin/BulkDock/OUTPUTS/openbind_a71ev2a_c1_knitwork_impure_165VXJF.sdf', '/opt/xchem-fragalysis-2/maxwin/BulkDock/OUTPUTS/openbind_a71ev2a_c1_knitwork_impure_1B07QS4.sdf', '/opt/xchem-fragalysis-2/maxwin/BulkDock/OUTPUTS/openbind_a71ev2a_c1_knitwork_impure_1B07X5R.sdf', '/opt/xchem-fragalysis-2/maxwin/openbind-hippo/a71ev2a/openbind_a71ev2a_c1_scaffold_products.sdf', '/opt/xchem-fragalysis-2/maxwin/openbind-hippo/a71ev2a/cycle_01/bulkdock/openbind_a71ev2a_c1_scaffold_products.sdf', '/opt/xchem-fragalysis-2/maxwin/openbind-hippo/a71ev2a/cycle_01/bulkdock/openbind_a71ev2a_c1_scaffolds.sdf']

>  <fragmenstein_runtime>  (919) 
2.521506

$$$$
C2423-P283
     RDKit          3D

 14 14  0  0  0  0  0  0  0  0999 V2000
   12.2292   15.1712   22.6718 C   0  0  0  0  0  0  0  0  0  0  0  0
   11.1445   14.5537   23.5468 C   0  0  0  0  0  0  0  0  0  0  0  0
   11.1374   15.2069   24.9255 C   0  0  0  0  0  0  0  0  0  0  0  0
    9.8158   14.6641   22.7962 C   0  0  0  0  0  0  0  0  0  0  0  0
    8.5718   14.1329   23.5227 C   0  0  1  0  0  0  0  0  0  0  0  0
    7.4204   14.1497   22.5150 C   0  0  0  0  0  0  0  0  0  0  0  0
    8.7999   12.7594   24.1816 C   0  0  2  0  0  0  0  0  0  0  0  0
    9.3531   11.9106   23.2679 F   0  0  0  0  0  0  0  0  0  0  0  0
    7.5359   12.1130   24.7754 C   0  0  2  0  0  0  0  0  0  0  0  0
    6.8770   12.9981   25.8409 C   0  0  0  0  0  0  0  0  0  0  0  0
    5.9082   12.2484   26.7540 C   0  0  0  0  0  0  0  0  0  0  0  0
    5.6398   10.8211   26.3091 C   0  0  0  0  0  0  0  0  0  0  0  0
    6.8683   10.0726   26.1125 N   0  0  0  0  0  0  0  0  0  0  0  0
    7.8818   10.7175   25.2887 C   0  0  0  0  0  0  0  0  0  0  0  0
  1  2  1  0
  2  3  1  0
  2  4  1  0
  4  5  1  0
  5  6  1  6
  5  7  1  0
  7  8  1  6
  7  9  1  0
  9 10  1  1
 10 11  1  0
 11 12  1  0
 12 13  1  0
 13 14  1  0
 14  9  1  0
M  END
>  <ref_pdb>  (920) 
A4291a

>  <subsites>  (920) 
1 - Active Site

>  <HIPPO Compound ID>  (920) 
2403

>  <energy_score>  (920) 
-39.020515

>  <fragmenstein_mode>  (920) 
expansion

>  <scratch_subdir>  (920) 
/opt/xchem-fragalysis-2/maxwin/BulkDock/SCRATCH/512213/C2423-P283

>  <smiles>  (920) 
CC(C)C[C@@H](C)[C@H](F)[C@@H]1CCCNC1

>  <alias>  (920) 
C2423-P283

>  <ref_mols>  (920) 
A1775a,A4291a

>  <inspiration_score>  (920) 
None

>  <tags>  (920) 
BulkDock Fragalysis export,fragmenstein_placed,openbind_a71ev2a_c1_knitwork_impure,openbind_a71ev2a_c1_scaffolds

>  <fragmenstein_outcome>  (920) 
acceptable

>  <fragmenstein_error>  (920) 


>  <distance_score>  (920) 
0.960267

>  <inchikey>  (920) 
BLPQLXCUNUOCSN-UHFFFAOYSA-N

>  <name>  (920) 
C2423-P283

>  <HIPPO Pose ID>  (920) 
439681

>  <Energy>  (920) 
21.587271

>  <exports>  (920) 
['/opt/xchem-fragalysis-2/maxwin/BulkDock/OUTPUTS/openbind_a71ev2a_c1_knitwork_impure_165VXJF.sdf', '/opt/xchem-fragalysis-2/maxwin/BulkDock/OUTPUTS/openbind_a71ev2a_c1_knitwork_impure_1B07QS4.sdf', '/opt/xchem-fragalysis-2/maxwin/BulkDock/OUTPUTS/openbind_a71ev2a_c1_knitwork_impure_1B07X5R.sdf', '/opt/xchem-fragalysis-2/maxwin/openbind-hippo/a71ev2a/openbind_a71ev2a_c1_scaffold_products.sdf', '/opt/xchem-fragalysis-2/maxwin/openbind-hippo/a71ev2a/cycle_01/bulkdock/openbind_a71ev2a_c1_scaffold_products.sdf', '/opt/xchem-fragalysis-2/maxwin/openbind-hippo/a71ev2a/cycle_01/bulkdock/openbind_a71ev2a_c1_scaffolds.sdf']

>  <fragmenstein_runtime>  (920) 
1.830519

$$$$
C760-P279
     RDKit          3D

 14 16  0  0  0  0  0  0  0  0999 V2000
    8.8598   11.6488   24.0015 C   0  0  0  0  0  0  0  0  0  0  0  0
    9.7325   12.8817   23.7484 C   0  0  0  0  0  0  0  0  0  0  0  0
    9.0190   14.1362   23.9245 N   0  0  0  0  0  0  0  0  0  0  0  0
    9.5839   15.3677   23.3578 C   0  0  0  0  0  0  0  0  0  0  0  0
   11.0221   15.6247   23.8348 C   0  0  0  0  0  0  0  0  0  0  0  0
   12.0921   15.0844   22.8999 C   0  0  0  0  0  0  0  0  0  0  0  0
   11.8883   15.5903   21.5521 N   0  0  0  0  0  0  0  0  0  0  0  0
   10.6238   15.0976   21.0103 C   0  0  0  0  0  0  0  0  0  0  0  0
    9.4357   15.5762   21.8379 C   0  0  0  0  0  0  0  0  0  0  0  0
    7.5674   14.0386   23.8542 C   0  0  0  0  0  0  0  0  0  0  0  0
    7.1805   13.2034   25.0613 C   0  0  0  0  0  0  0  0  0  0  0  0
    7.8423   11.8412   25.1215 C   0  0  0  0  0  0  0  0  0  0  0  0
    5.7885   13.3624   25.6443 C   0  0  0  0  0  0  0  0  0  0  0  0
    6.9564   13.9355   26.3785 C   0  0  0  0  0  0  0  0  0  0  0  0
  1  2  1  0
  2  3  1  0
  3  4  1  0
  4  5  1  0
  5  6  1  0
  6  7  1  0
  7  8  1  0
  8  9  1  0
  3 10  1  0
 10 11  1  0
 11 12  1  0
 11 13  1  0
 13 14  1  0
 12  1  1  0
  9  4  1  0
 14 11  1  0
M  END
>  <ref_pdb>  (921) 
A4035b

>  <subsites>  (921) 
1 - Active Site

>  <HIPPO Compound ID>  (921) 
4570

>  <energy_score>  (921) 
-25.402418

>  <fragmenstein_mode>  (921) 
expansion

>  <scratch_subdir>  (921) 
/opt/xchem-fragalysis-2/maxwin/BulkDock/SCRATCH/512213/C760-P279

>  <smiles>  (921) 
C1CN(C2CCNCC2)CC2(C1)CC2

>  <alias>  (921) 
C760-P279

>  <ref_mols>  (921) 
A0875a,A4035b

>  <inspiration_score>  (921) 
None

>  <tags>  (921) 
BulkDock Fragalysis export,fragmenstein_placed,openbind_a71ev2a_c1_knitwork_impure,openbind_a71ev2a_c1_scaffolds

>  <fragmenstein_outcome>  (921) 
acceptable

>  <fragmenstein_error>  (921) 


>  <distance_score>  (921) 
0.996398

>  <inchikey>  (921) 
ZPPAONKPBQFBHG-UHFFFAOYSA-N

>  <name>  (921) 
C760-P279

>  <HIPPO Pose ID>  (921) 
440002

>  <Energy>  (921) 
26.34732

>  <exports>  (921) 
['/opt/xchem-fragalysis-2/maxwin/BulkDock/OUTPUTS/openbind_a71ev2a_c1_knitwork_impure_165VXJF.sdf', '/opt/xchem-fragalysis-2/maxwin/BulkDock/OUTPUTS/openbind_a71ev2a_c1_knitwork_impure_1B07QS4.sdf', '/opt/xchem-fragalysis-2/maxwin/BulkDock/OUTPUTS/openbind_a71ev2a_c1_knitwork_impure_1B07X5R.sdf', '/opt/xchem-fragalysis-2/maxwin/openbind-hippo/a71ev2a/openbind_a71ev2a_c1_scaffold_products.sdf', '/opt/xchem-fragalysis-2/maxwin/openbind-hippo/a71ev2a/cycle_01/bulkdock/openbind_a71ev2a_c1_scaffold_products.sdf', '/opt/xchem-fragalysis-2/maxwin/openbind-hippo/a71ev2a/cycle_01/bulkdock/openbind_a71ev2a_c1_scaffolds.sdf']

>  <fragmenstein_runtime>  (921) 
47.064675

$$$$
C742-P441
     RDKit          3D

 12 14  0  0  0  0  0  0  0  0999 V2000
   10.1110   15.4055   20.9392 C   0  0  0  0  0  0  0  0  0  0  0  0
   11.2520   15.2273   21.7043 C   0  0  0  0  0  0  0  0  0  0  0  0
   11.1322   14.6432   22.9598 C   0  0  0  0  0  0  0  0  0  0  0  0
    9.8757   14.2271   23.4141 C   0  0  0  0  0  0  0  0  0  0  0  0
    9.8212   13.4615   24.6128 N   0  0  0  0  0  0  0  0  0  0  0  0
   10.2803   12.0976   24.2675 C   0  0  0  0  0  0  0  0  0  0  0  0
    9.0470   11.2605   24.1725 C   0  0  1  0  0  0  0  0  0  0  0  0
    8.3167   10.7697   25.3847 C   0  0  0  0  0  0  0  0  0  0  0  0
    7.9132   12.0570   24.7309 C   0  0  1  0  0  0  0  0  0  0  0  0
    8.4568   13.3818   25.1738 C   0  0  0  0  0  0  0  0  0  0  0  0
    8.7568   14.4292   22.6878 N   0  0  0  0  0  0  0  0  0  0  0  0
    8.8998   15.0192   21.4811 C   0  0  0  0  0  0  0  0  0  0  0  0
  1  2  2  0
  2  3  1  0
  3  4  2  0
  4  5  1  0
  5  6  1  0
  7  6  1  1
  7  8  1  0
  9  8  1  1
  9 10  1  0
  4 11  1  0
 11 12  2  0
 12  1  1  0
 10  5  1  0
  9  7  1  0
M  END
>  <ref_pdb>  (922) 
A4708a

>  <subsites>  (922) 
1 - Active Site

>  <HIPPO Compound ID>  (922) 
25347

>  <energy_score>  (922) 
-55.609465

>  <fragmenstein_mode>  (922) 
expansion

>  <scratch_subdir>  (922) 
/opt/xchem-fragalysis-2/maxwin/BulkDock/SCRATCH/512213/C742-P441

>  <smiles>  (922) 
c1ccc(N2C[C@H]3C[C@H]3C2)nc1

>  <alias>  (922) 
C742-P441

>  <ref_mols>  (922) 
A4708a,A2629a

>  <inspiration_score>  (922) 
None

>  <tags>  (922) 
BulkDock Fragalysis export,fragmenstein_placed,openbind_a71ev2a_c1_knitwork_impure,openbind_a71ev2a_c1_scaffolds

>  <fragmenstein_outcome>  (922) 
acceptable

>  <fragmenstein_error>  (922) 


>  <distance_score>  (922) 
0.900212

>  <inchikey>  (922) 
VAYQUYQSWAUBAD-UHFFFAOYSA-N

>  <name>  (922) 
C742-P441

>  <HIPPO Pose ID>  (922) 
440284

>  <Energy>  (922) 
14.023278

>  <exports>  (922) 
['/opt/xchem-fragalysis-2/maxwin/BulkDock/OUTPUTS/openbind_a71ev2a_c1_knitwork_impure_165VXJF.sdf', '/opt/xchem-fragalysis-2/maxwin/BulkDock/OUTPUTS/openbind_a71ev2a_c1_knitwork_impure_1B07QS4.sdf', '/opt/xchem-fragalysis-2/maxwin/BulkDock/OUTPUTS/openbind_a71ev2a_c1_knitwork_impure_1B07X5R.sdf', '/opt/xchem-fragalysis-2/maxwin/openbind-hippo/a71ev2a/openbind_a71ev2a_c1_scaffold_products.sdf', '/opt/xchem-fragalysis-2/maxwin/openbind-hippo/a71ev2a/cycle_01/bulkdock/openbind_a71ev2a_c1_scaffold_products.sdf', '/opt/xchem-fragalysis-2/maxwin/openbind-hippo/a71ev2a/cycle_01/bulkdock/openbind_a71ev2a_c1_scaffolds.sdf']

>  <fragmenstein_runtime>  (922) 
6.798247

$$$$
C11066-P220
     RDKit          3D

 24 26  0  0  0  0  0  0  0  0999 V2000
   26.9000   11.5777    2.8484 C   0  0  0  0  0  0  0  0  0  0  0  0
   25.8366   11.6008    1.7580 C   0  0  2  0  0  0  0  0  0  0  0  0
   26.4163   12.0904    0.4213 C   0  0  0  0  0  0  0  0  0  0  0  0
   25.3646   12.0028   -0.6864 C   0  0  0  0  0  0  0  0  0  0  0  0
   24.0612   12.5583   -0.2475 C   0  0  0  0  0  0  0  0  0  0  0  0
   23.0395   12.9178   -0.9925 N   0  0  0  0  0  0  0  0  0  0  0  0
   22.0248   13.3071   -0.1538 N   0  0  0  0  0  0  0  0  0  0  0  0
   22.4471   13.1740    1.0915 C   0  0  0  0  0  0  0  0  0  0  0  0
   21.6154   13.4514    2.2454 C   0  0  0  0  0  0  0  0  0  0  0  0
   22.0552   13.4038    3.3204 O   0  0  0  0  0  0  0  0  0  0  0  0
   20.1875   13.7570    1.7661 N   0  0  0  0  0  0  0  0  0  0  0  0
   18.9777   13.9754    2.5134 C   0  0  0  0  0  0  0  0  0  0  0  0
   18.2220   15.2326    2.1047 C   0  0  0  0  0  0  0  0  0  0  0  0
   19.0622   16.5098    2.0653 C   0  0  0  0  0  0  0  0  0  0  0  0
   19.4226   17.0406    3.4051 N   0  0  0  0  0  0  0  0  0  0  0  0
   20.7131   17.7633    3.3624 C   0  0  0  0  0  0  0  0  0  0  0  0
   18.4098   17.8738    3.9638 C   0  0  0  0  0  0  0  0  0  0  0  0
   18.5988   18.4533    5.2242 C   0  0  0  0  0  0  0  0  0  0  0  0
   17.6513   19.3374    5.7405 C   0  0  0  0  0  0  0  0  0  0  0  0
   16.5100   19.6106    5.0058 C   0  0  0  0  0  0  0  0  0  0  0  0
   16.3607   18.9644    3.7948 C   0  0  0  0  0  0  0  0  0  0  0  0
   17.2663   18.1011    3.2801 N   0  0  0  0  0  0  0  0  0  0  0  0
   23.7379   12.7252    1.0714 N   0  0  0  0  0  0  0  0  0  0  0  0
   24.6445   12.4812    2.1751 C   0  0  0  0  0  0  0  0  0  0  0  0
  2  1  1  1
  2  3  1  0
  3  4  1  0
  4  5  1  0
  5  6  2  0
  6  7  1  0
  7  8  2  0
  8  9  1  0
  9 10  2  0
  9 11  1  0
 11 12  1  0
 12 13  1  0
 13 14  1  0
 14 15  1  0
 15 16  1  0
 15 17  1  0
 17 18  2  0
 18 19  1  0
 19 20  2  0
 20 21  1  0
 21 22  2  0
  8 23  1  0
 23 24  1  0
 24  2  1  0
 23  5  1  0
 22 17  1  0
M  END
>  <ref_pdb>  (923) 
A3568a

>  <subsites>  (923) 
1 - Active Site,6 - A0486/A/147/1

>  <HIPPO Compound ID>  (923) 
5169

>  <energy_score>  (923) 
-48.070522

>  <fragmenstein_mode>  (923) 
expansion

>  <scratch_subdir>  (923) 
/opt/xchem-fragalysis-2/maxwin/BulkDock/SCRATCH/512213/C11066-P220

>  <smiles>  (923) 
C[C@@H]1CCc2nnc(C(=O)NCCCN(C)c3ccccn3)n2C1

>  <alias>  (923) 
C11066-P220

>  <ref_mols>  (923) 
A0239a,A3568a

>  <inspiration_score>  (923) 
None

>  <tags>  (923) 
BulkDock Fragalysis export,fragmenstein_placed,openbind_a71ev2a_c1_knitwork_impure,openbind_a71ev2a_c1_scaffolds

>  <fragmenstein_outcome>  (923) 
acceptable

>  <fragmenstein_error>  (923) 


>  <distance_score>  (923) 
0.93973

>  <inchikey>  (923) 
ZHYYBDZASCMDMP-UHFFFAOYSA-N

>  <name>  (923) 
C11066-P220

>  <HIPPO Pose ID>  (923) 
440348

>  <Energy>  (923) 
-13.324863

>  <exports>  (923) 
['/opt/xchem-fragalysis-2/maxwin/BulkDock/OUTPUTS/openbind_a71ev2a_c1_knitwork_impure_165VXJF.sdf', '/opt/xchem-fragalysis-2/maxwin/BulkDock/OUTPUTS/openbind_a71ev2a_c1_knitwork_impure_1B07QS4.sdf', '/opt/xchem-fragalysis-2/maxwin/BulkDock/OUTPUTS/openbind_a71ev2a_c1_knitwork_impure_1B07X5R.sdf', '/opt/xchem-fragalysis-2/maxwin/openbind-hippo/a71ev2a/openbind_a71ev2a_c1_scaffold_products.sdf', '/opt/xchem-fragalysis-2/maxwin/openbind-hippo/a71ev2a/cycle_01/bulkdock/openbind_a71ev2a_c1_scaffold_products.sdf', '/opt/xchem-fragalysis-2/maxwin/openbind-hippo/a71ev2a/cycle_01/bulkdock/openbind_a71ev2a_c1_scaffolds.sdf']

>  <fragmenstein_runtime>  (923) 
2.651605

$$$$
C7620-P239
     RDKit          3D

 15 16  0  0  0  0  0  0  0  0999 V2000
   12.1270   14.4319   23.4664 C   0  0  0  0  0  0  0  0  0  0  0  0
   10.8830   15.2849   23.3155 C   0  0  0  0  0  0  0  0  0  0  0  0
    9.8136   14.5881   22.4854 C   0  0  0  0  0  0  0  0  0  0  0  0
    8.5824   13.7221   23.4388 S   0  0  0  0  0  0  0  0  0  0  0  0
    7.6771   13.0743   22.5119 O   0  0  0  0  0  0  0  0  0  0  0  0
    8.0967   14.6249   24.4611 O   0  0  0  0  0  0  0  0  0  0  0  0
    9.4843   12.5409   24.2579 N   0  0  0  0  0  0  0  0  0  0  0  0
    8.8393   11.1917   24.4144 C   0  0  0  0  0  0  0  0  0  0  0  0
    7.8512   11.0820   25.5715 C   0  0  1  0  0  0  0  0  0  0  0  0
    6.8403   12.1847   25.7864 C   0  0  0  0  0  0  0  0  0  0  0  0
    5.7631   11.5611   26.6569 C   0  0  0  0  0  0  0  0  0  0  0  0
    6.0325   10.0688   26.6471 C   0  0  0  0  0  0  0  0  0  0  0  0
    7.0841    9.8358   25.6591 N   0  0  0  0  0  0  0  0  0  0  0  0
    8.8737   10.2602   23.2176 C   0  0  0  0  0  0  0  0  0  0  0  0
    9.7504    9.9596   24.3307 C   0  0  0  0  0  0  0  0  0  0  0  0
  1  2  1  0
  2  3  1  0
  3  4  1  0
  4  5  2  0
  4  6  2  0
  4  7  1  0
  7  8  1  0
  9  8  1  6
  9 10  1  0
 10 11  1  0
 11 12  1  0
 12 13  1  0
  8 14  1  0
 14 15  1  0
 15  8  1  0
 13  9  1  0
M  END
>  <ref_pdb>  (924) 
A3920a

>  <subsites>  (924) 
1 - Active Site

>  <HIPPO Compound ID>  (924) 
20140

>  <energy_score>  (924) 
-56.908829

>  <fragmenstein_mode>  (924) 
expansion

>  <scratch_subdir>  (924) 
/opt/xchem-fragalysis-2/maxwin/BulkDock/SCRATCH/512213/C7620-P239

>  <smiles>  (924) 
CCCS(=O)(=O)NC1([C@H]2CCCN2)CC1

>  <alias>  (924) 
C7620-P239

>  <ref_mols>  (924) 
A0719a,A3920a

>  <inspiration_score>  (924) 
None

>  <tags>  (924) 
BulkDock Fragalysis export,fragmenstein_placed,openbind_a71ev2a_c1_knitwork_impure,openbind_a71ev2a_c1_scaffolds

>  <fragmenstein_outcome>  (924) 
acceptable

>  <fragmenstein_error>  (924) 


>  <distance_score>  (924) 
0.988223

>  <inchikey>  (924) 
KKLAVPWGXVYYKK-UHFFFAOYSA-N

>  <name>  (924) 
C7620-P239

>  <HIPPO Pose ID>  (924) 
440671

>  <Energy>  (924) 
-23.617091

>  <exports>  (924) 
['/opt/xchem-fragalysis-2/maxwin/BulkDock/OUTPUTS/openbind_a71ev2a_c1_knitwork_impure_165VXJF.sdf', '/opt/xchem-fragalysis-2/maxwin/BulkDock/OUTPUTS/openbind_a71ev2a_c1_knitwork_impure_1B07QS4.sdf', '/opt/xchem-fragalysis-2/maxwin/BulkDock/OUTPUTS/openbind_a71ev2a_c1_knitwork_impure_1B07X5R.sdf', '/opt/xchem-fragalysis-2/maxwin/openbind-hippo/a71ev2a/openbind_a71ev2a_c1_scaffold_products.sdf', '/opt/xchem-fragalysis-2/maxwin/openbind-hippo/a71ev2a/cycle_01/bulkdock/openbind_a71ev2a_c1_scaffold_products.sdf', '/opt/xchem-fragalysis-2/maxwin/openbind-hippo/a71ev2a/cycle_01/bulkdock/openbind_a71ev2a_c1_scaffolds.sdf']

>  <fragmenstein_runtime>  (924) 
11.1468

$$$$
C11062-P176
     RDKit          3D

 26 29  0  0  0  0  0  0  0  0999 V2000
   19.5247   12.2861    2.9958 O   0  0  0  0  0  0  0  0  0  0  0  0
   19.6291   13.4315    2.8000 C   0  0  0  0  0  0  0  0  0  0  0  0
   18.3964   14.3593    2.6672 C   0  0  0  0  0  0  0  0  0  0  0  0
   18.7346   15.6999    2.1204 N   0  0  0  0  0  0  0  0  0  0  0  0
   17.6744   16.6880    2.4523 C   0  0  0  0  0  0  0  0  0  0  0  0
   16.3340   16.4962    1.7014 C   0  0  0  0  0  0  0  0  0  0  0  0
   16.5192   16.4429    0.2391 N   0  0  0  0  0  0  0  0  0  0  0  0
   16.6046   17.7002   -0.3833 C   0  0  0  0  0  0  0  0  0  0  0  0
   16.5799   17.7930   -1.7772 C   0  0  0  0  0  0  0  0  0  0  0  0
   16.6511   19.0387   -2.4001 C   0  0  0  0  0  0  0  0  0  0  0  0
   16.7338   20.1797   -1.6201 C   0  0  0  0  0  0  0  0  0  0  0  0
   16.7295   20.0192   -0.2487 C   0  0  0  0  0  0  0  0  0  0  0  0
   16.6585   18.8197    0.3728 N   0  0  0  0  0  0  0  0  0  0  0  0
   17.5561   15.4722   -0.1717 C   0  0  0  0  0  0  0  0  0  0  0  0
   18.8705   15.6568    0.6312 C   0  0  0  0  0  0  0  0  0  0  0  0
   20.8860   14.3232    2.7284 N   0  0  0  0  0  0  0  0  0  0  0  0
   22.2759   13.9793    2.7879 C   0  0  0  0  0  0  0  0  0  0  0  0
   22.7409   13.4830    1.4746 C   0  0  0  0  0  0  0  0  0  0  0  0
   22.1735   13.6488    0.2939 N   0  0  0  0  0  0  0  0  0  0  0  0
   22.9566   13.0280   -0.6515 N   0  0  0  0  0  0  0  0  0  0  0  0
   23.9940   12.5092   -0.0338 C   0  0  0  0  0  0  0  0  0  0  0  0
   23.9029   12.7834    1.3023 N   0  0  0  0  0  0  0  0  0  0  0  0
   24.9340   12.4935    2.2751 C   0  0  0  0  0  0  0  0  0  0  0  0
   25.9985   11.5294    1.7466 C   0  0  0  0  0  0  0  0  0  0  0  0
   26.3602   11.8346    0.2911 C   0  0  0  0  0  0  0  0  0  0  0  0
   25.1241   11.7386   -0.6067 C   0  0  0  0  0  0  0  0  0  0  0  0
  1  2  2  0
  2  3  1  0
  3  4  1  0
  4  5  1  0
  5  6  1  0
  6  7  1  0
  7  8  1  0
  8  9  2  0
  9 10  1  0
 10 11  2  0
 11 12  1  0
 12 13  2  0
  7 14  1  0
 14 15  1  0
  2 16  1  0
 16 17  1  0
 17 18  1  0
 18 19  2  0
 19 20  1  0
 20 21  2  0
 21 22  1  0
 22 23  1  0
 23 24  1  0
 24 25  1  0
 25 26  1  0
 15  4  1  0
 22 18  1  0
 13  8  1  0
 26 21  1  0
M  END
>  <ref_pdb>  (925) 
A3392a

>  <subsites>  (925) 
1 - Active Site,6 - A0486/A/147/1

>  <HIPPO Compound ID>  (925) 
2474

>  <energy_score>  (925) 
-43.624897

>  <fragmenstein_mode>  (925) 
expansion

>  <scratch_subdir>  (925) 
/opt/xchem-fragalysis-2/maxwin/BulkDock/SCRATCH/512213/C11062-P176

>  <smiles>  (925) 
O=C(CN1CCN(c2ccccn2)CC1)NCc1nnc2n1CCCC2

>  <alias>  (925) 
C11062-P176

>  <ref_mols>  (925) 
A3392a,A0239a

>  <inspiration_score>  (925) 
None

>  <tags>  (925) 
BulkDock Fragalysis export,fragmenstein_placed,openbind_a71ev2a_c1_knitwork_impure,openbind_a71ev2a_c1_scaffolds

>  <fragmenstein_outcome>  (925) 
acceptable

>  <fragmenstein_error>  (925) 


>  <distance_score>  (925) 
0.54078

>  <inchikey>  (925) 
CCZWIXDZBGEKGT-UHFFFAOYSA-N

>  <name>  (925) 
C11062-P176

>  <HIPPO Pose ID>  (925) 
440945

>  <Energy>  (925) 
78.428135

>  <exports>  (925) 
['/opt/xchem-fragalysis-2/maxwin/BulkDock/OUTPUTS/openbind_a71ev2a_c1_knitwork_impure_165VXJF.sdf', '/opt/xchem-fragalysis-2/maxwin/BulkDock/OUTPUTS/openbind_a71ev2a_c1_knitwork_impure_1B07QS4.sdf', '/opt/xchem-fragalysis-2/maxwin/BulkDock/OUTPUTS/openbind_a71ev2a_c1_knitwork_impure_1B07X5R.sdf', '/opt/xchem-fragalysis-2/maxwin/openbind-hippo/a71ev2a/openbind_a71ev2a_c1_scaffold_products.sdf', '/opt/xchem-fragalysis-2/maxwin/openbind-hippo/a71ev2a/cycle_01/bulkdock/openbind_a71ev2a_c1_scaffold_products.sdf', '/opt/xchem-fragalysis-2/maxwin/openbind-hippo/a71ev2a/cycle_01/bulkdock/openbind_a71ev2a_c1_scaffolds.sdf']

>  <fragmenstein_runtime>  (925) 
3.047666

$$$$
C15027-P135
     RDKit          3D

 13 13  0  0  0  0  0  0  0  0999 V2000
   12.8886   16.2319   21.1719 C   0  0  0  0  0  0  0  0  0  0  0  0
   12.6537   15.0446   20.6080 C   0  0  0  0  0  0  0  0  0  0  0  0
   11.7322   13.9658   21.0905 C   0  0  0  0  0  0  0  0  0  0  0  0
   11.0363   14.0883   22.4536 C   0  0  0  0  0  0  0  0  0  0  0  0
   10.2206   14.9787   22.7219 O   0  0  0  0  0  0  0  0  0  0  0  0
   11.3246   13.0261   23.5189 C   0  0  2  0  0  0  0  0  0  0  0  0
   12.4709   12.2218   23.3423 O   0  0  0  0  0  0  0  0  0  0  0  0
   10.1071   12.2062   23.9245 C   0  0  0  0  0  0  0  0  0  0  0  0
    9.9741   10.8498   23.6189 C   0  0  0  0  0  0  0  0  0  0  0  0
    8.9053   10.1448   24.1481 C   0  0  0  0  0  0  0  0  0  0  0  0
    7.9488   10.6963   24.9279 N   0  0  0  0  0  0  0  0  0  0  0  0
    8.0520   12.0185   25.1635 C   0  0  0  0  0  0  0  0  0  0  0  0
    9.0947   12.8006   24.6943 C   0  0  0  0  0  0  0  0  0  0  0  0
  1  2  2  0
  2  3  1  0
  3  4  1  0
  4  5  2  0
  4  6  1  0
  6  7  1  6
  6  8  1  0
  8  9  2  0
  9 10  1  0
 10 11  2  0
 11 12  1  0
 12 13  2  0
 13  8  1  0
M  END
>  <ref_pdb>  (926) 
A2629a

>  <subsites>  (926) 
1 - Active Site

>  <HIPPO Compound ID>  (926) 
2410

>  <energy_score>  (926) 
-2.42288

>  <fragmenstein_mode>  (926) 
expansion

>  <scratch_subdir>  (926) 
/opt/xchem-fragalysis-2/maxwin/BulkDock/SCRATCH/512213/C15027-P135

>  <smiles>  (926) 
C=CCC(=O)[C@H](O)c1ccncc1

>  <alias>  (926) 
C15027-P135

>  <ref_mols>  (926) 
A0719a,A2629a

>  <inspiration_score>  (926) 
None

>  <tags>  (926) 
BulkDock Fragalysis export,fragmenstein_placed,openbind_a71ev2a_c1_knitwork_impure,openbind_a71ev2a_c1_scaffolds

>  <fragmenstein_outcome>  (926) 
acceptable

>  <fragmenstein_error>  (926) 


>  <distance_score>  (926) 
0.722683

>  <inchikey>  (926) 
XHBNPKKACABHBA-UHFFFAOYSA-N

>  <name>  (926) 
C15027-P135

>  <HIPPO Pose ID>  (926) 
441161

>  <Energy>  (926) 
82.777729

>  <exports>  (926) 
['/opt/xchem-fragalysis-2/maxwin/BulkDock/OUTPUTS/openbind_a71ev2a_c1_knitwork_impure_165VXJF.sdf', '/opt/xchem-fragalysis-2/maxwin/BulkDock/OUTPUTS/openbind_a71ev2a_c1_knitwork_impure_1B07QS4.sdf', '/opt/xchem-fragalysis-2/maxwin/BulkDock/OUTPUTS/openbind_a71ev2a_c1_knitwork_impure_1B07X5R.sdf', '/opt/xchem-fragalysis-2/maxwin/openbind-hippo/a71ev2a/openbind_a71ev2a_c1_scaffold_products.sdf', '/opt/xchem-fragalysis-2/maxwin/openbind-hippo/a71ev2a/cycle_01/bulkdock/openbind_a71ev2a_c1_scaffold_products.sdf', '/opt/xchem-fragalysis-2/maxwin/openbind-hippo/a71ev2a/cycle_01/bulkdock/openbind_a71ev2a_c1_scaffolds.sdf']

>  <fragmenstein_runtime>  (926) 
7.824985

$$$$
C21692-P22
     RDKit          3D

 13 13  0  0  0  0  0  0  0  0999 V2000
    5.5953   14.5726   22.2841 N   0  0  0  0  0  0  0  0  0  0  0  0
    7.2251   14.4588   22.6747 S   0  0  0  0  0  0  0  0  0  0  0  0
    7.9389   15.4792   21.9494 O   0  0  0  0  0  0  0  0  0  0  0  0
    7.4785   13.0502   22.4773 O   0  0  0  0  0  0  0  0  0  0  0  0
    7.0841   14.9267   24.3879 C   0  0  0  0  0  0  0  0  0  0  0  0
    8.1166   14.3849   25.3513 C   0  0  0  0  0  0  0  0  0  0  0  0
    8.0198   12.8737   25.5116 C   0  0  0  0  0  0  0  0  0  0  0  0
    8.9416   12.0410   24.7717 N   0  0  0  0  0  0  0  0  0  0  0  0
    8.6318   10.6491   24.5588 C   0  0  0  0  0  0  0  0  0  0  0  0
    9.6756   10.1515   23.5783 C   0  0  0  0  0  0  0  0  0  0  0  0
   10.3606   11.3413   23.1816 N   0  0  0  0  0  0  0  0  0  0  0  0
    9.9156   12.4558   23.8618 C   0  0  0  0  0  0  0  0  0  0  0  0
   10.3163   13.5851   23.6503 O   0  0  0  0  0  0  0  0  0  0  0  0
  1  2  1  0
  2  3  2  0
  2  4  2  0
  2  5  1  0
  5  6  1  0
  6  7  1  0
  7  8  1  0
  8  9  1  0
  9 10  1  0
 10 11  1  0
 11 12  1  0
 12 13  2  0
 12  8  1  0
M  END
>  <ref_pdb>  (927) 
A0528a

>  <subsites>  (927) 
1 - Active Site

>  <HIPPO Compound ID>  (927) 
20970

>  <energy_score>  (927) 
-19.185788

>  <fragmenstein_mode>  (927) 
expansion

>  <scratch_subdir>  (927) 
/opt/xchem-fragalysis-2/maxwin/BulkDock/SCRATCH/512213/C21692-P22

>  <smiles>  (927) 
NS(=O)(=O)CCCN1CCNC1=O

>  <alias>  (927) 
C21692-P22

>  <ref_mols>  (927) 
A0719a,A0528a

>  <inspiration_score>  (927) 
None

>  <tags>  (927) 
BulkDock Fragalysis export,fragmenstein_placed,openbind_a71ev2a_c1_knitwork_impure,openbind_a71ev2a_c1_scaffolds

>  <fragmenstein_outcome>  (927) 
acceptable

>  <fragmenstein_error>  (927) 


>  <distance_score>  (927) 
0.799439

>  <inchikey>  (927) 
CPOAYBILPJRGSY-UHFFFAOYSA-N

>  <name>  (927) 
C21692-P22

>  <HIPPO Pose ID>  (927) 
442584

>  <Energy>  (927) 
-132.756477

>  <exports>  (927) 
['/opt/xchem-fragalysis-2/maxwin/BulkDock/OUTPUTS/openbind_a71ev2a_c1_knitwork_impure_165VXJF.sdf', '/opt/xchem-fragalysis-2/maxwin/BulkDock/OUTPUTS/openbind_a71ev2a_c1_knitwork_impure_1B07QS4.sdf', '/opt/xchem-fragalysis-2/maxwin/BulkDock/OUTPUTS/openbind_a71ev2a_c1_knitwork_impure_1B07X5R.sdf', '/opt/xchem-fragalysis-2/maxwin/openbind-hippo/a71ev2a/openbind_a71ev2a_c1_scaffold_products.sdf', '/opt/xchem-fragalysis-2/maxwin/openbind-hippo/a71ev2a/cycle_01/bulkdock/openbind_a71ev2a_c1_scaffold_products.sdf', '/opt/xchem-fragalysis-2/maxwin/openbind-hippo/a71ev2a/cycle_01/bulkdock/openbind_a71ev2a_c1_scaffolds.sdf']

>  <fragmenstein_runtime>  (927) 
0.985739

$$$$
C21693-P22
     RDKit          3D

 14 14  0  0  0  0  0  0  0  0999 V2000
    8.0020   14.5375   26.6218 C   0  0  0  0  0  0  0  0  0  0  0  0
    8.2477   14.3373   25.1221 C   0  0  2  0  0  0  0  0  0  0  0  0
    6.9610   14.6169   24.3704 C   0  0  0  0  0  0  0  0  0  0  0  0
    7.1157   14.4997   22.6077 S   0  0  0  0  0  0  0  0  0  0  0  0
    5.4758   14.5686   22.2515 N   0  0  0  0  0  0  0  0  0  0  0  0
    7.7589   15.6849   22.1014 O   0  0  0  0  0  0  0  0  0  0  0  0
    7.4892   13.1704   22.1753 O   0  0  0  0  0  0  0  0  0  0  0  0
    8.7938   12.9958   24.8441 N   0  0  0  0  0  0  0  0  0  0  0  0
    7.8973   11.8507   24.9465 C   0  0  0  0  0  0  0  0  0  0  0  0
    8.5883   10.5304   24.7877 C   0  0  0  0  0  0  0  0  0  0  0  0
    9.5620   10.5346   23.6469 C   0  0  0  0  0  0  0  0  0  0  0  0
   10.3396   11.7360   23.6134 N   0  0  0  0  0  0  0  0  0  0  0  0
    9.9227   12.9536   24.0379 C   0  0  0  0  0  0  0  0  0  0  0  0
   10.5570   13.9489   23.7045 O   0  0  0  0  0  0  0  0  0  0  0  0
  2  1  1  1
  2  3  1  0
  3  4  1  0
  4  5  1  0
  4  6  2  0
  4  7  2  0
  2  8  1  0
  8  9  1  0
  9 10  1  0
 10 11  1  0
 11 12  1  0
 12 13  1  0
 13 14  2  0
 13  8  1  0
M  END
>  <ref_pdb>  (928) 
A0528a

>  <subsites>  (928) 
1 - Active Site

>  <HIPPO Compound ID>  (928) 
3863

>  <energy_score>  (928) 
-46.691039

>  <fragmenstein_mode>  (928) 
expansion

>  <scratch_subdir>  (928) 
/opt/xchem-fragalysis-2/maxwin/BulkDock/SCRATCH/512213/C21693-P22

>  <smiles>  (928) 
C[C@H](CS(N)(=O)=O)N1CCCNC1=O

>  <alias>  (928) 
C21693-P22

>  <ref_mols>  (928) 
A0719a,A0528a

>  <inspiration_score>  (928) 
None

>  <tags>  (928) 
BulkDock Fragalysis export,fragmenstein_placed,openbind_a71ev2a_c1_knitwork_impure,openbind_a71ev2a_c1_scaffolds

>  <fragmenstein_outcome>  (928) 
acceptable

>  <fragmenstein_error>  (928) 


>  <distance_score>  (928) 
0.695916

>  <inchikey>  (928) 
JTEJVNYAELMDNE-UHFFFAOYSA-N

>  <name>  (928) 
C21693-P22

>  <HIPPO Pose ID>  (928) 
442585

>  <Energy>  (928) 
-169.571886

>  <exports>  (928) 
['/opt/xchem-fragalysis-2/maxwin/BulkDock/OUTPUTS/openbind_a71ev2a_c1_knitwork_impure_165VXJF.sdf', '/opt/xchem-fragalysis-2/maxwin/BulkDock/OUTPUTS/openbind_a71ev2a_c1_knitwork_impure_1B07QS4.sdf', '/opt/xchem-fragalysis-2/maxwin/BulkDock/OUTPUTS/openbind_a71ev2a_c1_knitwork_impure_1B07X5R.sdf', '/opt/xchem-fragalysis-2/maxwin/openbind-hippo/a71ev2a/openbind_a71ev2a_c1_scaffold_products.sdf', '/opt/xchem-fragalysis-2/maxwin/openbind-hippo/a71ev2a/cycle_01/bulkdock/openbind_a71ev2a_c1_scaffold_products.sdf', '/opt/xchem-fragalysis-2/maxwin/openbind-hippo/a71ev2a/cycle_01/bulkdock/openbind_a71ev2a_c1_scaffolds.sdf']

>  <fragmenstein_runtime>  (928) 
1.120597

$$$$
C30125-P22
     RDKit          3D

 19 20  0  0  0  0  0  0  0  0999 V2000
   12.9889   16.8883   21.2640 O   0  0  0  0  0  0  0  0  0  0  0  0
   12.4348   15.8501   21.5749 C   0  0  0  0  0  0  0  0  0  0  0  0
   11.2043   15.2881   20.9167 C   0  0  0  0  0  0  0  0  0  0  0  0
   10.7844   14.1617   21.8523 C   0  0  2  0  0  0  0  0  0  0  0  0
    9.8141   14.6415   22.8823 N   0  0  0  0  0  0  0  0  0  0  0  0
    8.1854   14.7277   22.4103 S   0  0  0  0  0  0  0  0  0  0  0  0
    8.1420   15.8836   21.5499 O   0  0  0  0  0  0  0  0  0  0  0  0
    7.7862   13.4168   21.9447 O   0  0  0  0  0  0  0  0  0  0  0  0
    7.3646   15.0850   23.9503 C   0  0  0  0  0  0  0  0  0  0  0  0
    8.0644   14.5418   25.1875 C   0  0  0  0  0  0  0  0  0  0  0  0
    7.6371   13.1483   25.6002 C   0  0  0  0  0  0  0  0  0  0  0  0
    8.0297   11.9960   24.8226 N   0  0  0  0  0  0  0  0  0  0  0  0
    9.3310   11.7626   24.2731 C   0  0  0  0  0  0  0  0  0  0  0  0
    9.3039   10.2930   23.9506 C   0  0  0  0  0  0  0  0  0  0  0  0
    8.3290    9.7553   24.8359 O   0  0  0  0  0  0  0  0  0  0  0  0
    7.5630   10.7824   25.3037 C   0  0  0  0  0  0  0  0  0  0  0  0
    6.6529   10.6339   26.1043 O   0  0  0  0  0  0  0  0  0  0  0  0
   12.1037   13.7620   22.5199 C   0  0  0  0  0  0  0  0  0  0  0  0
   12.8484   14.9878   22.5660 N   0  0  0  0  0  0  0  0  0  0  0  0
  1  2  2  0
  2  3  1  0
  3  4  1  0
  4  5  1  1
  5  6  1  0
  6  7  2  0
  6  8  2  0
  6  9  1  0
  9 10  1  0
 10 11  1  0
 11 12  1  0
 12 13  1  0
 13 14  1  0
 14 15  1  0
 15 16  1  0
 16 17  2  0
  4 18  1  0
 18 19  1  0
 19  2  1  0
 16 12  1  0
M  END
>  <ref_pdb>  (929) 
A0528a

>  <subsites>  (929) 
1 - Active Site

>  <HIPPO Compound ID>  (929) 
27189

>  <energy_score>  (929) 
-34.856771

>  <fragmenstein_mode>  (929) 
expansion

>  <scratch_subdir>  (929) 
/opt/xchem-fragalysis-2/maxwin/BulkDock/SCRATCH/512213/C30125-P22

>  <smiles>  (929) 
O=C1C[C@H](NS(=O)(=O)CCCN2CCOC2=O)CN1

>  <alias>  (929) 
C30125-P22

>  <ref_mols>  (929) 
A0719a,A0528a

>  <inspiration_score>  (929) 
None

>  <tags>  (929) 
BulkDock Fragalysis export,fragmenstein_placed,openbind_a71ev2a_c1_knitwork_impure,openbind_a71ev2a_c1_scaffolds

>  <fragmenstein_outcome>  (929) 
acceptable

>  <fragmenstein_error>  (929) 


>  <distance_score>  (929) 
0.871473

>  <inchikey>  (929) 
HASBCQSXHBUGKF-UHFFFAOYSA-N

>  <name>  (929) 
C30125-P22

>  <HIPPO Pose ID>  (929) 
442592

>  <Energy>  (929) 
-103.400283

>  <exports>  (929) 
['/opt/xchem-fragalysis-2/maxwin/BulkDock/OUTPUTS/openbind_a71ev2a_c1_knitwork_impure_165VXJF.sdf', '/opt/xchem-fragalysis-2/maxwin/BulkDock/OUTPUTS/openbind_a71ev2a_c1_knitwork_impure_1B07QS4.sdf', '/opt/xchem-fragalysis-2/maxwin/BulkDock/OUTPUTS/openbind_a71ev2a_c1_knitwork_impure_1B07X5R.sdf', '/opt/xchem-fragalysis-2/maxwin/openbind-hippo/a71ev2a/openbind_a71ev2a_c1_scaffold_products.sdf', '/opt/xchem-fragalysis-2/maxwin/openbind-hippo/a71ev2a/cycle_01/bulkdock/openbind_a71ev2a_c1_scaffold_products.sdf', '/opt/xchem-fragalysis-2/maxwin/openbind-hippo/a71ev2a/cycle_01/bulkdock/openbind_a71ev2a_c1_scaffolds.sdf']

>  <fragmenstein_runtime>  (929) 
3.085226

$$$$
C15027-P152
     RDKit          3D

 13 13  0  0  0  0  0  0  0  0999 V2000
   12.0132   14.3710   22.9574 C   0  0  0  0  0  0  0  0  0  0  0  0
   10.9096   14.8535   23.5403 C   0  0  0  0  0  0  0  0  0  0  0  0
    9.5692   14.9221   22.8704 C   0  0  0  0  0  0  0  0  0  0  0  0
    8.6513   13.7411   23.1484 C   0  0  0  0  0  0  0  0  0  0  0  0
    7.8204   13.3814   22.3017 O   0  0  0  0  0  0  0  0  0  0  0  0
    8.6615   13.1229   24.5446 C   0  0  1  0  0  0  0  0  0  0  0  0
    7.4931   13.6484   25.1860 O   0  0  0  0  0  0  0  0  0  0  0  0
    8.6598   11.6103   24.5244 C   0  0  0  0  0  0  0  0  0  0  0  0
    9.5113   10.8983   23.6689 C   0  0  0  0  0  0  0  0  0  0  0  0
    9.4896    9.5132   23.6987 C   0  0  0  0  0  0  0  0  0  0  0  0
    8.6946    8.8071   24.5245 N   0  0  0  0  0  0  0  0  0  0  0  0
    7.8761    9.5047   25.3320 C   0  0  0  0  0  0  0  0  0  0  0  0
    7.8348   10.8817   25.3825 C   0  0  0  0  0  0  0  0  0  0  0  0
  1  2  2  0
  2  3  1  0
  3  4  1  0
  4  5  2  0
  4  6  1  0
  6  7  1  1
  6  8  1  0
  8  9  2  0
  9 10  1  0
 10 11  2  0
 11 12  1  0
 12 13  2  0
 13  8  1  0
M  END
>  <ref_pdb>  (930) 
A3201a

>  <subsites>  (930) 
1 - Active Site

>  <HIPPO Compound ID>  (930) 
21569

>  <energy_score>  (930) 
-9.321732

>  <fragmenstein_mode>  (930) 
expansion

>  <scratch_subdir>  (930) 
/opt/xchem-fragalysis-2/maxwin/BulkDock/SCRATCH/512213/C15027-P152

>  <smiles>  (930) 
C=CCC(=O)[C@@H](O)c1ccncc1

>  <alias>  (930) 
C15027-P152

>  <ref_mols>  (930) 
A3201a,A0719a

>  <inspiration_score>  (930) 
None

>  <tags>  (930) 
BulkDock Fragalysis export,fragmenstein_placed,openbind_a71ev2a_c1_knitwork_impure,openbind_a71ev2a_c1_scaffolds

>  <fragmenstein_outcome>  (930) 
acceptable

>  <fragmenstein_error>  (930) 


>  <distance_score>  (930) 
0.922684

>  <inchikey>  (930) 
VGRJTUCBCKJLAN-UHFFFAOYSA-N

>  <name>  (930) 
C15027-P152

>  <HIPPO Pose ID>  (930) 
442657

>  <Energy>  (930) 
75.026541

>  <exports>  (930) 
['/opt/xchem-fragalysis-2/maxwin/BulkDock/OUTPUTS/openbind_a71ev2a_c1_knitwork_impure_165VXJF.sdf', '/opt/xchem-fragalysis-2/maxwin/BulkDock/OUTPUTS/openbind_a71ev2a_c1_knitwork_impure_1B07QS4.sdf', '/opt/xchem-fragalysis-2/maxwin/BulkDock/OUTPUTS/openbind_a71ev2a_c1_knitwork_impure_1B07X5R.sdf', '/opt/xchem-fragalysis-2/maxwin/openbind-hippo/a71ev2a/openbind_a71ev2a_c1_scaffold_products.sdf', '/opt/xchem-fragalysis-2/maxwin/openbind-hippo/a71ev2a/cycle_01/bulkdock/openbind_a71ev2a_c1_scaffold_products.sdf', '/opt/xchem-fragalysis-2/maxwin/openbind-hippo/a71ev2a/cycle_01/bulkdock/openbind_a71ev2a_c1_scaffolds.sdf']

>  <fragmenstein_runtime>  (930) 
1.187229

$$$$
C15036-P152
     RDKit          3D

 14 14  0  0  0  0  0  0  0  0999 V2000
   12.3738   15.5950   21.6977 N   0  0  0  0  0  0  0  0  0  0  0  0
   11.6511   15.1890   22.5060 C   0  0  0  0  0  0  0  0  0  0  0  0
   10.6548   14.6956   23.4580 C   0  0  0  0  0  0  0  0  0  0  0  0
    9.3325   14.4918   22.7198 C   0  0  0  0  0  0  0  0  0  0  0  0
    8.2001   13.9389   23.4836 N   0  0  0  0  0  0  0  0  0  0  0  0
    8.2773   13.1404   24.9405 S   0  0  0  0  0  0  0  0  0  0  0  0
    9.3477   13.7090   25.7198 O   0  0  0  0  0  0  0  0  0  0  0  0
    6.9298   13.1242   25.4576 O   0  0  0  0  0  0  0  0  0  0  0  0
    8.6727   11.4852   24.5503 C   0  0  0  0  0  0  0  0  0  0  0  0
    9.5077   11.1294   23.5006 C   0  0  0  0  0  0  0  0  0  0  0  0
    9.7233    9.7836   23.2564 C   0  0  0  0  0  0  0  0  0  0  0  0
    9.1420    8.8626   24.0965 C   0  0  0  0  0  0  0  0  0  0  0  0
    8.2962    9.1751   25.1018 N   0  0  0  0  0  0  0  0  0  0  0  0
    8.0650   10.4897   25.2971 C   0  0  0  0  0  0  0  0  0  0  0  0
  1  2  3  0
  2  3  1  0
  3  4  1  0
  4  5  1  0
  5  6  1  0
  6  7  2  0
  6  8  2  0
  6  9  1  0
  9 10  2  0
 10 11  1  0
 11 12  2  0
 12 13  1  0
 13 14  2  0
 14  9  1  0
M  END
>  <ref_pdb>  (931) 
A3201a

>  <subsites>  (931) 
1 - Active Site

>  <HIPPO Compound ID>  (931) 
1403

>  <energy_score>  (931) 
-22.823828

>  <fragmenstein_mode>  (931) 
expansion

>  <scratch_subdir>  (931) 
/opt/xchem-fragalysis-2/maxwin/BulkDock/SCRATCH/512213/C15036-P152

>  <smiles>  (931) 
N#CCCNS(=O)(=O)c1cccnc1

>  <alias>  (931) 
C15036-P152

>  <ref_mols>  (931) 
A3201a,A0719a

>  <inspiration_score>  (931) 
None

>  <tags>  (931) 
BulkDock Fragalysis export,fragmenstein_placed,openbind_a71ev2a_c1_knitwork_impure,openbind_a71ev2a_c1_scaffolds

>  <fragmenstein_outcome>  (931) 
acceptable

>  <fragmenstein_error>  (931) 


>  <distance_score>  (931) 
0.942247

>  <inchikey>  (931) 
AYFIZZAEOIDREF-UHFFFAOYSA-N

>  <name>  (931) 
C15036-P152

>  <HIPPO Pose ID>  (931) 
442663

>  <Energy>  (931) 
-42.807889

>  <exports>  (931) 
['/opt/xchem-fragalysis-2/maxwin/BulkDock/OUTPUTS/openbind_a71ev2a_c1_knitwork_impure_165VXJF.sdf', '/opt/xchem-fragalysis-2/maxwin/BulkDock/OUTPUTS/openbind_a71ev2a_c1_knitwork_impure_1B07QS4.sdf', '/opt/xchem-fragalysis-2/maxwin/BulkDock/OUTPUTS/openbind_a71ev2a_c1_knitwork_impure_1B07X5R.sdf', '/opt/xchem-fragalysis-2/maxwin/openbind-hippo/a71ev2a/openbind_a71ev2a_c1_scaffold_products.sdf', '/opt/xchem-fragalysis-2/maxwin/openbind-hippo/a71ev2a/cycle_01/bulkdock/openbind_a71ev2a_c1_scaffold_products.sdf', '/opt/xchem-fragalysis-2/maxwin/openbind-hippo/a71ev2a/cycle_01/bulkdock/openbind_a71ev2a_c1_scaffolds.sdf']

>  <fragmenstein_runtime>  (931) 
4.90044

$$$$
C15044-P152
     RDKit          3D

 15 15  0  0  0  0  0  0  0  0999 V2000
   10.3877   14.9187   19.7831 N   0  0  0  0  0  0  0  0  0  0  0  0
   11.2038   15.1597   20.5694 C   0  0  0  0  0  0  0  0  0  0  0  0
   12.1618   15.4730   21.6312 C   0  0  0  0  0  0  0  0  0  0  0  0
   12.0928   14.4661   22.7804 C   0  0  0  0  0  0  0  0  0  0  0  0
   10.8643   14.6231   23.6745 C   0  0  0  0  0  0  0  0  0  0  0  0
    9.6579   14.2034   22.9830 N   0  0  0  0  0  0  0  0  0  0  0  0
    8.3222   13.6985   23.8512 S   0  0  0  0  0  0  0  0  0  0  0  0
    8.3873   14.3248   25.1562 O   0  0  0  0  0  0  0  0  0  0  0  0
    7.1926   13.8550   22.9619 O   0  0  0  0  0  0  0  0  0  0  0  0
    8.5305   11.9620   24.1287 C   0  0  0  0  0  0  0  0  0  0  0  0
    7.8080   11.3536   25.1446 C   0  0  0  0  0  0  0  0  0  0  0  0
    7.9787    9.9903   25.3092 C   0  0  0  0  0  0  0  0  0  0  0  0
    8.8548    9.3166   24.4631 C   0  0  0  0  0  0  0  0  0  0  0  0
    9.5316   10.0213   23.4825 C   0  0  0  0  0  0  0  0  0  0  0  0
    9.4088   11.3448   23.3037 N   0  0  0  0  0  0  0  0  0  0  0  0
  1  2  3  0
  2  3  1  0
  3  4  1  0
  4  5  1  0
  5  6  1  0
  6  7  1  0
  7  8  2  0
  7  9  2  0
  7 10  1  0
 10 11  2  0
 11 12  1  0
 12 13  2  0
 13 14  1  0
 14 15  2  0
 15 10  1  0
M  END
>  <ref_pdb>  (932) 
A3201a

>  <subsites>  (932) 
1 - Active Site

>  <HIPPO Compound ID>  (932) 
29720

>  <energy_score>  (932) 
-25.150002

>  <fragmenstein_mode>  (932) 
expansion

>  <scratch_subdir>  (932) 
/opt/xchem-fragalysis-2/maxwin/BulkDock/SCRATCH/512213/C15044-P152

>  <smiles>  (932) 
N#CCCCNS(=O)(=O)c1ccccn1

>  <alias>  (932) 
C15044-P152

>  <ref_mols>  (932) 
A3201a,A0719a

>  <inspiration_score>  (932) 
None

>  <tags>  (932) 
BulkDock Fragalysis export,fragmenstein_placed,openbind_a71ev2a_c1_knitwork_impure,openbind_a71ev2a_c1_scaffolds

>  <fragmenstein_outcome>  (932) 
acceptable

>  <fragmenstein_error>  (932) 


>  <distance_score>  (932) 
0.838905

>  <inchikey>  (932) 
CLLVVLWRAOVKKD-UHFFFAOYSA-N

>  <name>  (932) 
C15044-P152

>  <HIPPO Pose ID>  (932) 
442668

>  <Energy>  (932) 
18.218342

>  <exports>  (932) 
['/opt/xchem-fragalysis-2/maxwin/BulkDock/OUTPUTS/openbind_a71ev2a_c1_knitwork_impure_165VXJF.sdf', '/opt/xchem-fragalysis-2/maxwin/BulkDock/OUTPUTS/openbind_a71ev2a_c1_knitwork_impure_1B07QS4.sdf', '/opt/xchem-fragalysis-2/maxwin/BulkDock/OUTPUTS/openbind_a71ev2a_c1_knitwork_impure_1B07X5R.sdf', '/opt/xchem-fragalysis-2/maxwin/openbind-hippo/a71ev2a/openbind_a71ev2a_c1_scaffold_products.sdf', '/opt/xchem-fragalysis-2/maxwin/openbind-hippo/a71ev2a/cycle_01/bulkdock/openbind_a71ev2a_c1_scaffold_products.sdf', '/opt/xchem-fragalysis-2/maxwin/openbind-hippo/a71ev2a/cycle_01/bulkdock/openbind_a71ev2a_c1_scaffolds.sdf']

>  <fragmenstein_runtime>  (932) 
5.66273

$$$$
C15045-P152
     RDKit          3D

 15 15  0  0  0  0  0  0  0  0999 V2000
   11.7349   15.1295   20.2359 C   0  0  0  0  0  0  0  0  0  0  0  0
   11.9962   15.5496   21.4809 C   0  0  0  0  0  0  0  0  0  0  0  0
   12.1571   14.6202   22.6416 C   0  0  0  0  0  0  0  0  0  0  0  0
   10.8786   14.5154   23.4731 C   0  0  0  0  0  0  0  0  0  0  0  0
    9.6873   14.1607   22.5854 C   0  0  0  0  0  0  0  0  0  0  0  0
    8.4325   13.6523   23.2393 C   0  0  0  0  0  0  0  0  0  0  0  0
    7.3859   13.6043   22.5769 O   0  0  0  0  0  0  0  0  0  0  0  0
    8.4819   13.0820   24.6476 C   0  0  1  0  0  0  0  0  0  0  0  0
    7.2773   13.5400   25.2767 O   0  0  0  0  0  0  0  0  0  0  0  0
    8.5634   11.5725   24.6393 C   0  0  0  0  0  0  0  0  0  0  0  0
    9.4627   10.8827   23.8121 C   0  0  0  0  0  0  0  0  0  0  0  0
    9.4656    9.4975   23.8275 C   0  0  0  0  0  0  0  0  0  0  0  0
    8.6543    8.7722   24.6172 N   0  0  0  0  0  0  0  0  0  0  0  0
    7.7979    9.4473   25.4042 C   0  0  0  0  0  0  0  0  0  0  0  0
    7.7269   10.8204   25.4635 C   0  0  0  0  0  0  0  0  0  0  0  0
  1  2  2  0
  2  3  1  0
  3  4  1  0
  4  5  1  0
  5  6  1  0
  6  7  2  0
  6  8  1  0
  8  9  1  1
  8 10  1  0
 10 11  2  0
 11 12  1  0
 12 13  2  0
 13 14  1  0
 14 15  2  0
 15 10  1  0
M  END
>  <ref_pdb>  (933) 
A3201a

>  <subsites>  (933) 
1 - Active Site

>  <HIPPO Compound ID>  (933) 
7419

>  <energy_score>  (933) 
-15.093235

>  <fragmenstein_mode>  (933) 
expansion

>  <scratch_subdir>  (933) 
/opt/xchem-fragalysis-2/maxwin/BulkDock/SCRATCH/512213/C15045-P152

>  <smiles>  (933) 
C=CCCCC(=O)[C@@H](O)c1ccncc1

>  <alias>  (933) 
C15045-P152

>  <ref_mols>  (933) 
A3201a,A0719a

>  <inspiration_score>  (933) 
None

>  <tags>  (933) 
BulkDock Fragalysis export,fragmenstein_placed,openbind_a71ev2a_c1_knitwork_impure,openbind_a71ev2a_c1_scaffolds

>  <fragmenstein_outcome>  (933) 
acceptable

>  <fragmenstein_error>  (933) 


>  <distance_score>  (933) 
0.855267

>  <inchikey>  (933) 
NETFXXUKTZUOOD-UHFFFAOYSA-N

>  <name>  (933) 
C15045-P152

>  <HIPPO Pose ID>  (933) 
442669

>  <Energy>  (933) 
64.779487

>  <exports>  (933) 
['/opt/xchem-fragalysis-2/maxwin/BulkDock/OUTPUTS/openbind_a71ev2a_c1_knitwork_impure_165VXJF.sdf', '/opt/xchem-fragalysis-2/maxwin/BulkDock/OUTPUTS/openbind_a71ev2a_c1_knitwork_impure_1B07QS4.sdf', '/opt/xchem-fragalysis-2/maxwin/BulkDock/OUTPUTS/openbind_a71ev2a_c1_knitwork_impure_1B07X5R.sdf', '/opt/xchem-fragalysis-2/maxwin/openbind-hippo/a71ev2a/openbind_a71ev2a_c1_scaffold_products.sdf', '/opt/xchem-fragalysis-2/maxwin/openbind-hippo/a71ev2a/cycle_01/bulkdock/openbind_a71ev2a_c1_scaffold_products.sdf', '/opt/xchem-fragalysis-2/maxwin/openbind-hippo/a71ev2a/cycle_01/bulkdock/openbind_a71ev2a_c1_scaffolds.sdf']

>  <fragmenstein_runtime>  (933) 
1.574899

$$$$
C15065-P152
     RDKit          3D

 13 13  0  0  0  0  0  0  0  0999 V2000
   11.9162   14.6730   22.7777 C   0  0  0  0  0  0  0  0  0  0  0  0
   10.9517   14.7768   23.8200 O   0  0  0  0  0  0  0  0  0  0  0  0
    9.6457   15.1122   23.3404 C   0  0  0  0  0  0  0  0  0  0  0  0
    8.8283   13.8560   23.0504 C   0  0  2  0  0  0  0  0  0  0  0  0
    7.5659   14.1478   22.4462 O   0  0  0  0  0  0  0  0  0  0  0  0
    8.5263   13.1147   24.3446 C   0  0  0  0  0  0  0  0  0  0  0  0
    8.0194   13.6853   25.3117 O   0  0  0  0  0  0  0  0  0  0  0  0
    8.7170   11.6531   24.3693 C   0  0  0  0  0  0  0  0  0  0  0  0
    9.6102   10.9914   23.5281 C   0  0  0  0  0  0  0  0  0  0  0  0
    9.6966    9.6116   23.5808 C   0  0  0  0  0  0  0  0  0  0  0  0
    8.9117    8.9594   24.5026 C   0  0  0  0  0  0  0  0  0  0  0  0
    8.0275    9.5534   25.3329 N   0  0  0  0  0  0  0  0  0  0  0  0
    7.9452   10.8975   25.2408 C   0  0  0  0  0  0  0  0  0  0  0  0
  1  2  1  0
  2  3  1  0
  3  4  1  0
  4  5  1  1
  4  6  1  0
  6  7  2  0
  6  8  1  0
  8  9  2  0
  9 10  1  0
 10 11  2  0
 11 12  1  0
 12 13  2  0
 13  8  1  0
M  END
>  <ref_pdb>  (934) 
A3201a

>  <subsites>  (934) 
1 - Active Site

>  <HIPPO Compound ID>  (934) 
8485

>  <energy_score>  (934) 
-21.381157

>  <fragmenstein_mode>  (934) 
expansion

>  <scratch_subdir>  (934) 
/opt/xchem-fragalysis-2/maxwin/BulkDock/SCRATCH/512213/C15065-P152

>  <smiles>  (934) 
COC[C@H](O)C(=O)c1cccnc1

>  <alias>  (934) 
C15065-P152

>  <ref_mols>  (934) 
A3201a,A0719a

>  <inspiration_score>  (934) 
None

>  <tags>  (934) 
BulkDock Fragalysis export,fragmenstein_placed,openbind_a71ev2a_c1_knitwork_impure,openbind_a71ev2a_c1_scaffolds

>  <fragmenstein_outcome>  (934) 
acceptable

>  <fragmenstein_error>  (934) 


>  <distance_score>  (934) 
0.988099

>  <inchikey>  (934) 
AHRHQIZZBXAYPC-UHFFFAOYSA-N

>  <name>  (934) 
C15065-P152

>  <HIPPO Pose ID>  (934) 
442685

>  <Energy>  (934) 
80.882703

>  <exports>  (934) 
['/opt/xchem-fragalysis-2/maxwin/BulkDock/OUTPUTS/openbind_a71ev2a_c1_knitwork_impure_165VXJF.sdf', '/opt/xchem-fragalysis-2/maxwin/BulkDock/OUTPUTS/openbind_a71ev2a_c1_knitwork_impure_1B07QS4.sdf', '/opt/xchem-fragalysis-2/maxwin/BulkDock/OUTPUTS/openbind_a71ev2a_c1_knitwork_impure_1B07X5R.sdf', '/opt/xchem-fragalysis-2/maxwin/openbind-hippo/a71ev2a/openbind_a71ev2a_c1_scaffold_products.sdf', '/opt/xchem-fragalysis-2/maxwin/openbind-hippo/a71ev2a/cycle_01/bulkdock/openbind_a71ev2a_c1_scaffold_products.sdf', '/opt/xchem-fragalysis-2/maxwin/openbind-hippo/a71ev2a/cycle_01/bulkdock/openbind_a71ev2a_c1_scaffolds.sdf']

>  <fragmenstein_runtime>  (934) 
1.248645

$$$$
C15067-P152
     RDKit          3D

 15 15  0  0  0  0  0  0  0  0999 V2000
   11.3226   14.9448   20.3388 C   0  0  0  0  0  0  0  0  0  0  0  0
   11.9368   15.4208   21.6491 C   0  0  0  0  0  0  0  0  0  0  0  0
   11.7051   14.4165   22.7770 C   0  0  0  0  0  0  0  0  0  0  0  0
   10.7742   14.8726   23.7625 O   0  0  0  0  0  0  0  0  0  0  0  0
    9.4471   15.0586   23.2985 C   0  0  0  0  0  0  0  0  0  0  0  0
    8.5820   13.8078   23.2958 C   0  0  0  0  0  0  0  0  0  0  0  0
    7.9186   13.4693   22.3081 O   0  0  0  0  0  0  0  0  0  0  0  0
    8.4707   13.0721   24.6193 C   0  0  1  0  0  0  0  0  0  0  0  0
    7.1871   13.4078   25.1472 O   0  0  0  0  0  0  0  0  0  0  0  0
    8.6463   11.5849   24.4762 C   0  0  0  0  0  0  0  0  0  0  0  0
    9.5080   11.0369   23.5184 C   0  0  0  0  0  0  0  0  0  0  0  0
    9.6823    9.6689   23.4454 C   0  0  0  0  0  0  0  0  0  0  0  0
    9.0282    8.8974   24.3719 C   0  0  0  0  0  0  0  0  0  0  0  0
    8.1737    9.3655   25.3068 N   0  0  0  0  0  0  0  0  0  0  0  0
    8.0013   10.7008   25.3331 C   0  0  0  0  0  0  0  0  0  0  0  0
  1  2  1  0
  2  3  1  0
  3  4  1  0
  4  5  1  0
  5  6  1  0
  6  7  2  0
  6  8  1  0
  8  9  1  6
  8 10  1  0
 10 11  2  0
 11 12  1  0
 12 13  2  0
 13 14  1  0
 14 15  2  0
 15 10  1  0
M  END
>  <ref_pdb>  (935) 
A3201a

>  <subsites>  (935) 
1 - Active Site

>  <HIPPO Compound ID>  (935) 
8952

>  <energy_score>  (935) 
-19.434741

>  <fragmenstein_mode>  (935) 
expansion

>  <scratch_subdir>  (935) 
/opt/xchem-fragalysis-2/maxwin/BulkDock/SCRATCH/512213/C15067-P152

>  <smiles>  (935) 
CCCOCC(=O)[C@@H](O)c1cccnc1

>  <alias>  (935) 
C15067-P152

>  <ref_mols>  (935) 
A3201a,A0719a

>  <inspiration_score>  (935) 
None

>  <tags>  (935) 
BulkDock Fragalysis export,fragmenstein_placed,openbind_a71ev2a_c1_knitwork_impure,openbind_a71ev2a_c1_scaffolds

>  <fragmenstein_outcome>  (935) 
acceptable

>  <fragmenstein_error>  (935) 


>  <distance_score>  (935) 
0.990401

>  <inchikey>  (935) 
GQBDKUUPQMEZIN-UHFFFAOYSA-N

>  <name>  (935) 
C15067-P152

>  <HIPPO Pose ID>  (935) 
442687

>  <Energy>  (935) 
76.684696

>  <exports>  (935) 
['/opt/xchem-fragalysis-2/maxwin/BulkDock/OUTPUTS/openbind_a71ev2a_c1_knitwork_impure_165VXJF.sdf', '/opt/xchem-fragalysis-2/maxwin/BulkDock/OUTPUTS/openbind_a71ev2a_c1_knitwork_impure_1B07QS4.sdf', '/opt/xchem-fragalysis-2/maxwin/BulkDock/OUTPUTS/openbind_a71ev2a_c1_knitwork_impure_1B07X5R.sdf', '/opt/xchem-fragalysis-2/maxwin/openbind-hippo/a71ev2a/openbind_a71ev2a_c1_scaffold_products.sdf', '/opt/xchem-fragalysis-2/maxwin/openbind-hippo/a71ev2a/cycle_01/bulkdock/openbind_a71ev2a_c1_scaffold_products.sdf', '/opt/xchem-fragalysis-2/maxwin/openbind-hippo/a71ev2a/cycle_01/bulkdock/openbind_a71ev2a_c1_scaffolds.sdf']

>  <fragmenstein_runtime>  (935) 
1.478961

$$$$
C15070-P152
     RDKit          3D

 15 15  0  0  0  0  0  0  0  0999 V2000
   12.0787   15.5681   21.6300 C   0  0  0  0  0  0  0  0  0  0  0  0
   12.0652   14.4933   22.7071 C   0  0  0  0  0  0  0  0  0  0  0  0
   10.7813   14.4190   23.5563 C   0  0  1  0  0  0  0  0  0  0  0  0
   10.6694   15.6108   24.4944 C   0  0  0  0  0  0  0  0  0  0  0  0
    9.5254   14.2696   22.6739 C   0  0  0  0  0  0  0  0  0  0  0  0
    8.2241   13.9094   23.4002 C   0  0  1  0  0  0  0  0  0  0  0  0
    7.3036   13.3139   22.4805 O   0  0  0  0  0  0  0  0  0  0  0  0
    8.3833   13.0247   24.6320 C   0  0  0  0  0  0  0  0  0  0  0  0
    8.2720   13.4900   25.7661 O   0  0  0  0  0  0  0  0  0  0  0  0
    8.6236   11.5803   24.4642 C   0  0  0  0  0  0  0  0  0  0  0  0
    9.4489   11.0488   23.4762 C   0  0  0  0  0  0  0  0  0  0  0  0
    9.6421    9.6801   23.4186 C   0  0  0  0  0  0  0  0  0  0  0  0
    9.0215    8.9058   24.3696 C   0  0  0  0  0  0  0  0  0  0  0  0
    8.1836    9.3733   25.3223 N   0  0  0  0  0  0  0  0  0  0  0  0
    8.0050   10.7100   25.3485 C   0  0  0  0  0  0  0  0  0  0  0  0
  1  2  1  0
  2  3  1  0
  3  4  1  6
  3  5  1  0
  5  6  1  0
  6  7  1  6
  6  8  1  0
  8  9  2  0
  8 10  1  0
 10 11  2  0
 11 12  1  0
 12 13  2  0
 13 14  1  0
 14 15  2  0
 15 10  1  0
M  END
>  <ref_pdb>  (936) 
A3201a

>  <subsites>  (936) 
1 - Active Site

>  <HIPPO Compound ID>  (936) 
6034

>  <energy_score>  (936) 
-31.520284

>  <fragmenstein_mode>  (936) 
expansion

>  <scratch_subdir>  (936) 
/opt/xchem-fragalysis-2/maxwin/BulkDock/SCRATCH/512213/C15070-P152

>  <smiles>  (936) 
CC[C@@H](C)C[C@@H](O)C(=O)c1cccnc1

>  <alias>  (936) 
C15070-P152

>  <ref_mols>  (936) 
A3201a,A0719a

>  <inspiration_score>  (936) 
None

>  <tags>  (936) 
BulkDock Fragalysis export,fragmenstein_placed,openbind_a71ev2a_c1_knitwork_impure,openbind_a71ev2a_c1_scaffolds

>  <fragmenstein_outcome>  (936) 
acceptable

>  <fragmenstein_error>  (936) 


>  <distance_score>  (936) 
0.769885

>  <inchikey>  (936) 
XLSHTFUPRUSZEF-UHFFFAOYSA-N

>  <name>  (936) 
C15070-P152

>  <HIPPO Pose ID>  (936) 
442690

>  <Energy>  (936) 
70.320617

>  <exports>  (936) 
['/opt/xchem-fragalysis-2/maxwin/BulkDock/OUTPUTS/openbind_a71ev2a_c1_knitwork_impure_165VXJF.sdf', '/opt/xchem-fragalysis-2/maxwin/BulkDock/OUTPUTS/openbind_a71ev2a_c1_knitwork_impure_1B07QS4.sdf', '/opt/xchem-fragalysis-2/maxwin/BulkDock/OUTPUTS/openbind_a71ev2a_c1_knitwork_impure_1B07X5R.sdf', '/opt/xchem-fragalysis-2/maxwin/openbind-hippo/a71ev2a/openbind_a71ev2a_c1_scaffold_products.sdf', '/opt/xchem-fragalysis-2/maxwin/openbind-hippo/a71ev2a/cycle_01/bulkdock/openbind_a71ev2a_c1_scaffold_products.sdf', '/opt/xchem-fragalysis-2/maxwin/openbind-hippo/a71ev2a/cycle_01/bulkdock/openbind_a71ev2a_c1_scaffolds.sdf']

>  <fragmenstein_runtime>  (936) 
2.099028

$$$$
C8138-P152
     RDKit          3D

 15 15  0  0  0  0  0  0  0  0999 V2000
   12.1229   15.5976   21.7673 C   0  0  0  0  0  0  0  0  0  0  0  0
   11.9870   14.4307   22.7371 C   0  0  0  0  0  0  0  0  0  0  0  0
   10.7861   14.4870   23.7027 C   0  0  1  0  0  0  0  0  0  0  0  0
   11.0370   15.4786   24.8369 C   0  0  0  0  0  0  0  0  0  0  0  0
    9.4558   14.7908   23.0019 C   0  0  0  0  0  0  0  0  0  0  0  0
    8.4010   13.7134   23.1298 C   0  0  0  0  0  0  0  0  0  0  0  0
    7.7326   13.3765   22.1446 O   0  0  0  0  0  0  0  0  0  0  0  0
    8.0979   13.1011   24.4955 C   0  0  2  0  0  0  0  0  0  0  0  0
    8.3481   13.9636   25.5976 O   0  0  0  0  0  0  0  0  0  0  0  0
    8.7328   11.7143   24.7537 C   0  0  0  0  0  0  0  0  0  0  0  0
    9.3755   11.0422   23.5358 C   0  0  0  0  0  0  0  0  0  0  0  0
    9.7476    9.5790   23.7432 C   0  0  0  0  0  0  0  0  0  0  0  0
    8.6698    8.7813   24.2899 N   0  0  0  0  0  0  0  0  0  0  0  0
    7.9851    9.3749   25.4162 C   0  0  0  0  0  0  0  0  0  0  0  0
    7.6149   10.8220   25.2869 C   0  0  0  0  0  0  0  0  0  0  0  0
  1  2  1  0
  2  3  1  0
  3  4  1  1
  3  5  1  0
  5  6  1  0
  6  7  2  0
  6  8  1  0
  8  9  1  1
  8 10  1  0
 10 11  1  0
 11 12  1  0
 12 13  1  0
 13 14  1  0
 14 15  1  0
 15 10  1  0
M  END
>  <ref_pdb>  (937) 
A3201a

>  <subsites>  (937) 
1 - Active Site

>  <HIPPO Compound ID>  (937) 
1132

>  <energy_score>  (937) 
-30.046142

>  <fragmenstein_mode>  (937) 
expansion

>  <scratch_subdir>  (937) 
/opt/xchem-fragalysis-2/maxwin/BulkDock/SCRATCH/512213/C8138-P152

>  <smiles>  (937) 
CC[C@@H](C)CC(=O)[C@H](O)C1CCNCC1

>  <alias>  (937) 
C8138-P152

>  <ref_mols>  (937) 
A3201a,A0719a

>  <inspiration_score>  (937) 
None

>  <tags>  (937) 
BulkDock Fragalysis export,fragmenstein_placed,openbind_a71ev2a_c1_knitwork_impure,openbind_a71ev2a_c1_scaffolds

>  <fragmenstein_outcome>  (937) 
acceptable

>  <fragmenstein_error>  (937) 


>  <distance_score>  (937) 
0.919411

>  <inchikey>  (937) 
BGMXVHWUBCMRIH-UHFFFAOYSA-N

>  <name>  (937) 
C8138-P152

>  <HIPPO Pose ID>  (937) 
442698

>  <Energy>  (937) 
47.381479

>  <exports>  (937) 
['/opt/xchem-fragalysis-2/maxwin/BulkDock/OUTPUTS/openbind_a71ev2a_c1_knitwork_impure_165VXJF.sdf', '/opt/xchem-fragalysis-2/maxwin/BulkDock/OUTPUTS/openbind_a71ev2a_c1_knitwork_impure_1B07QS4.sdf', '/opt/xchem-fragalysis-2/maxwin/BulkDock/OUTPUTS/openbind_a71ev2a_c1_knitwork_impure_1B07X5R.sdf', '/opt/xchem-fragalysis-2/maxwin/openbind-hippo/a71ev2a/openbind_a71ev2a_c1_scaffold_products.sdf', '/opt/xchem-fragalysis-2/maxwin/openbind-hippo/a71ev2a/cycle_01/bulkdock/openbind_a71ev2a_c1_scaffold_products.sdf', '/opt/xchem-fragalysis-2/maxwin/openbind-hippo/a71ev2a/cycle_01/bulkdock/openbind_a71ev2a_c1_scaffolds.sdf']

>  <fragmenstein_runtime>  (937) 
2.391647

$$$$
C6248-P354
     RDKit          3D

 13 14  0  0  0  0  0  0  0  0999 V2000
    7.7027   11.4056   25.2454 C   0  0  0  0  0  0  0  0  0  0  0  0
    7.8351   12.7300   24.8665 C   0  0  0  0  0  0  0  0  0  0  0  0
    8.7149   13.0707   23.8253 C   0  0  0  0  0  0  0  0  0  0  0  0
    8.7289   14.5055   23.3383 C   0  0  1  0  0  0  0  0  0  0  0  0
    9.4537   15.4647   24.1453 N   0  0  0  0  0  0  0  0  0  0  0  0
   10.8276   15.1629   24.4840 C   0  0  0  0  0  0  0  0  0  0  0  0
   11.7926   14.8494   23.3492 C   0  0  0  0  0  0  0  0  0  0  0  0
   11.5338   15.6248   22.0638 C   0  0  0  0  0  0  0  0  0  0  0  0
   10.5821   14.8738   21.1472 C   0  0  0  0  0  0  0  0  0  0  0  0
    8.8132   14.8428   21.5706 S   0  0  0  0  0  0  0  0  0  0  0  0
    9.4789   12.0414   23.2747 C   0  0  0  0  0  0  0  0  0  0  0  0
    9.2766   10.7397   23.7174 C   0  0  0  0  0  0  0  0  0  0  0  0
    8.4024   10.4015   24.6892 N   0  0  0  0  0  0  0  0  0  0  0  0
  1  2  2  0
  2  3  1  0
  4  3  1  6
  4  5  1  0
  5  6  1  0
  6  7  1  0
  7  8  1  0
  8  9  1  0
  9 10  1  0
  3 11  2  0
 11 12  1  0
 12 13  2  0
 13  1  1  0
 10  4  1  0
M  END
>  <ref_pdb>  (938) 
A4415a

>  <subsites>  (938) 
1 - Active Site

>  <HIPPO Compound ID>  (938) 
29440

>  <energy_score>  (938) 
-27.823855

>  <fragmenstein_mode>  (938) 
expansion

>  <scratch_subdir>  (938) 
/opt/xchem-fragalysis-2/maxwin/BulkDock/SCRATCH/512213/C6248-P354

>  <smiles>  (938) 
c1cc([C@H]2NCCCCS2)ccn1

>  <alias>  (938) 
C6248-P354

>  <ref_mols>  (938) 
A4415a,A2629a

>  <inspiration_score>  (938) 
None

>  <tags>  (938) 
BulkDock Fragalysis export,fragmenstein_placed,openbind_a71ev2a_c1_knitwork_impure,openbind_a71ev2a_c1_scaffolds

>  <fragmenstein_outcome>  (938) 
acceptable

>  <fragmenstein_error>  (938) 


>  <distance_score>  (938) 
0.959614

>  <inchikey>  (938) 
MQWQJMQDCPGAHX-UHFFFAOYSA-N

>  <name>  (938) 
C6248-P354

>  <HIPPO Pose ID>  (938) 
443589

>  <Energy>  (938) 
4.865115

>  <exports>  (938) 
['/opt/xchem-fragalysis-2/maxwin/BulkDock/OUTPUTS/openbind_a71ev2a_c1_knitwork_impure_165VXJF.sdf', '/opt/xchem-fragalysis-2/maxwin/BulkDock/OUTPUTS/openbind_a71ev2a_c1_knitwork_impure_1B07QS4.sdf', '/opt/xchem-fragalysis-2/maxwin/BulkDock/OUTPUTS/openbind_a71ev2a_c1_knitwork_impure_1B07X5R.sdf', '/opt/xchem-fragalysis-2/maxwin/openbind-hippo/a71ev2a/openbind_a71ev2a_c1_scaffold_products.sdf', '/opt/xchem-fragalysis-2/maxwin/openbind-hippo/a71ev2a/cycle_01/bulkdock/openbind_a71ev2a_c1_scaffold_products.sdf', '/opt/xchem-fragalysis-2/maxwin/openbind-hippo/a71ev2a/cycle_01/bulkdock/openbind_a71ev2a_c1_scaffolds.sdf']

>  <fragmenstein_runtime>  (938) 
25.836637

$$$$
C8138-P613
     RDKit          3D

 15 15  0  0  0  0  0  0  0  0999 V2000
   11.8319   14.6726   20.9788 C   0  0  0  0  0  0  0  0  0  0  0  0
   11.4292   14.8421   22.4336 C   0  0  0  0  0  0  0  0  0  0  0  0
   10.2144   15.7630   22.6145 C   0  0  1  0  0  0  0  0  0  0  0  0
   10.3523   16.9922   21.7007 C   0  0  0  0  0  0  0  0  0  0  0  0
    8.8700   15.1164   22.2605 C   0  0  0  0  0  0  0  0  0  0  0  0
    8.3813   13.8890   22.9993 C   0  0  0  0  0  0  0  0  0  0  0  0
    7.6045   13.1279   22.4149 O   0  0  0  0  0  0  0  0  0  0  0  0
    8.7617   13.6899   24.4650 C   0  0  1  0  0  0  0  0  0  0  0  0
    8.4700   14.8720   25.2094 O   0  0  0  0  0  0  0  0  0  0  0  0
    8.1224   12.4846   25.1711 C   0  0  0  0  0  0  0  0  0  0  0  0
    6.6656   12.6675   25.5994 C   0  0  0  0  0  0  0  0  0  0  0  0
    6.1163   11.4410   26.3311 C   0  0  0  0  0  0  0  0  0  0  0  0
    6.3533   10.1882   25.6268 N   0  0  0  0  0  0  0  0  0  0  0  0
    7.7560    9.9902   25.3035 C   0  0  0  0  0  0  0  0  0  0  0  0
    8.3965   11.1308   24.5265 C   0  0  0  0  0  0  0  0  0  0  0  0
  1  2  1  0
  2  3  1  0
  3  4  1  6
  3  5  1  0
  5  6  1  0
  6  7  2  0
  6  8  1  0
  8  9  1  1
  8 10  1  0
 10 11  1  0
 11 12  1  0
 12 13  1  0
 13 14  1  0
 14 15  1  0
 15 10  1  0
M  END
>  <ref_pdb>  (939) 
A5394b

>  <subsites>  (939) 
1 - Active Site

>  <HIPPO Compound ID>  (939) 
1414

>  <energy_score>  (939) 
-32.023699

>  <fragmenstein_mode>  (939) 
expansion

>  <scratch_subdir>  (939) 
/opt/xchem-fragalysis-2/maxwin/BulkDock/SCRATCH/511200/C8138-P613

>  <smiles>  (939) 
CC[C@@H](C)CC(=O)[C@@H](O)C1CCNCC1

>  <alias>  (939) 
C8138-P613

>  <ref_mols>  (939) 
A0719a,A5394b

>  <inspiration_score>  (939) 
None

>  <tags>  (939) 
BulkDock Fragalysis export,fragmenstein_placed,openbind_a71ev2a_c1_knitwork_impure,openbind_a71ev2a_c1_scaffolds

>  <fragmenstein_outcome>  (939) 
acceptable

>  <fragmenstein_error>  (939) 


>  <distance_score>  (939) 
0.94673

>  <inchikey>  (939) 
YASWEVOWOCSSRH-UHFFFAOYSA-N

>  <name>  (939) 
C8138-P613

>  <HIPPO Pose ID>  (939) 
443907

>  <Energy>  (939) 
40.847926

>  <exports>  (939) 
['/opt/xchem-fragalysis-2/maxwin/BulkDock/OUTPUTS/openbind_a71ev2a_c1_knitwork_impure_165VXJF.sdf', '/opt/xchem-fragalysis-2/maxwin/BulkDock/OUTPUTS/openbind_a71ev2a_c1_knitwork_impure_1B07QS4.sdf', '/opt/xchem-fragalysis-2/maxwin/BulkDock/OUTPUTS/openbind_a71ev2a_c1_knitwork_impure_1B07X5R.sdf', '/opt/xchem-fragalysis-2/maxwin/openbind-hippo/a71ev2a/openbind_a71ev2a_c1_scaffold_products.sdf', '/opt/xchem-fragalysis-2/maxwin/openbind-hippo/a71ev2a/cycle_01/bulkdock/openbind_a71ev2a_c1_scaffold_products.sdf', '/opt/xchem-fragalysis-2/maxwin/openbind-hippo/a71ev2a/cycle_01/bulkdock/openbind_a71ev2a_c1_scaffolds.sdf']

>  <fragmenstein_runtime>  (939) 
3.27442

$$$$
C8142-P613
     RDKit          3D

 12 12  0  0  0  0  0  0  0  0999 V2000
   10.7842   15.2261   23.1785 C   0  0  0  0  0  0  0  0  0  0  0  0
    9.4880   14.8009   22.5351 C   0  0  0  0  0  0  0  0  0  0  0  0
    9.1160   15.3001   21.4712 O   0  0  0  0  0  0  0  0  0  0  0  0
    8.6699   13.6919   23.1757 C   0  0  0  0  0  0  0  0  0  0  0  0
    8.6441   13.7677   24.6933 C   0  0  1  0  0  0  0  0  0  0  0  0
    8.1348   15.0311   25.1133 O   0  0  0  0  0  0  0  0  0  0  0  0
    7.8849   12.6494   25.4260 C   0  0  1  0  0  0  0  0  0  0  0  0
    6.4039   12.8601   25.7113 C   0  0  0  0  0  0  0  0  0  0  0  0
    5.8790   11.7261   26.5989 C   0  0  0  0  0  0  0  0  0  0  0  0
    6.3001   10.3275   26.1519 C   0  0  0  0  0  0  0  0  0  0  0  0
    7.7113   10.2122   25.8101 N   0  0  0  0  0  0  0  0  0  0  0  0
    8.1694   11.2483   24.8923 C   0  0  0  0  0  0  0  0  0  0  0  0
  1  2  1  0
  2  3  2  0
  2  4  1  0
  4  5  1  0
  5  6  1  6
  5  7  1  0
  7  8  1  6
  8  9  1  0
  9 10  1  0
 10 11  1  0
 11 12  1  0
 12  7  1  0
M  END
>  <ref_pdb>  (940) 
A5394b

>  <subsites>  (940) 
1 - Active Site

>  <HIPPO Compound ID>  (940) 
9982

>  <energy_score>  (940) 
-20.138477

>  <fragmenstein_mode>  (940) 
expansion

>  <scratch_subdir>  (940) 
/opt/xchem-fragalysis-2/maxwin/BulkDock/SCRATCH/511200/C8142-P613

>  <smiles>  (940) 
CC(=O)C[C@@H](O)[C@H]1CCCNC1

>  <alias>  (940) 
C8142-P613

>  <ref_mols>  (940) 
A0719a,A5394b

>  <inspiration_score>  (940) 
None

>  <tags>  (940) 
BulkDock Fragalysis export,fragmenstein_placed,openbind_a71ev2a_c1_knitwork_impure,openbind_a71ev2a_c1_scaffolds

>  <fragmenstein_outcome>  (940) 
acceptable

>  <fragmenstein_error>  (940) 


>  <distance_score>  (940) 
0.949483

>  <inchikey>  (940) 
CDOCJOQYVNDDOB-UHFFFAOYSA-N

>  <name>  (940) 
C8142-P613

>  <HIPPO Pose ID>  (940) 
443909

>  <Energy>  (940) 
15.819881

>  <exports>  (940) 
['/opt/xchem-fragalysis-2/maxwin/BulkDock/OUTPUTS/openbind_a71ev2a_c1_knitwork_impure_165VXJF.sdf', '/opt/xchem-fragalysis-2/maxwin/BulkDock/OUTPUTS/openbind_a71ev2a_c1_knitwork_impure_1B07QS4.sdf', '/opt/xchem-fragalysis-2/maxwin/BulkDock/OUTPUTS/openbind_a71ev2a_c1_knitwork_impure_1B07X5R.sdf', '/opt/xchem-fragalysis-2/maxwin/openbind-hippo/a71ev2a/openbind_a71ev2a_c1_scaffold_products.sdf', '/opt/xchem-fragalysis-2/maxwin/openbind-hippo/a71ev2a/cycle_01/bulkdock/openbind_a71ev2a_c1_scaffold_products.sdf', '/opt/xchem-fragalysis-2/maxwin/openbind-hippo/a71ev2a/cycle_01/bulkdock/openbind_a71ev2a_c1_scaffolds.sdf']

>  <fragmenstein_runtime>  (940) 
1.13683

$$$$
C8155-P613
     RDKit          3D

 16 16  0  0  0  0  0  0  0  0999 V2000
    8.6026   10.2072   24.7603 C   0  0  0  0  0  0  0  0  0  0  0  0
    7.3845    9.6475   25.3905 C   0  0  0  0  0  0  0  0  0  0  0  0
    6.5154   10.1606   26.2706 C   0  0  0  0  0  0  0  0  0  0  0  0
    6.5326   11.4426   26.9278 C   0  0  0  0  0  0  0  0  0  0  0  0
    6.7416   12.6584   26.4032 C   0  0  0  0  0  0  0  0  0  0  0  0
    6.9818   12.9962   24.9737 C   0  0  0  0  0  0  0  0  0  0  0  0
    8.3326   13.5564   24.8594 N   0  0  0  0  0  0  0  0  0  0  0  0
    8.9892   13.4239   23.3200 S   0  0  0  0  0  0  0  0  0  0  0  0
    7.8975   13.2093   22.3993 O   0  0  0  0  0  0  0  0  0  0  0  0
   10.0811   12.4907   23.4642 O   0  0  0  0  0  0  0  0  0  0  0  0
    9.5733   14.9794   23.1638 N   0  0  0  0  0  0  0  0  0  0  0  0
   10.8380   15.3288   23.8303 C   0  0  0  0  0  0  0  0  0  0  0  0
   12.0239   15.0555   22.9127 C   0  0  0  0  0  0  0  0  0  0  0  0
   11.8686   15.7689   21.5724 C   0  0  0  0  0  0  0  0  0  0  0  0
   10.5395   15.3992   20.9221 C   0  0  0  0  0  0  0  0  0  0  0  0
    9.3779   15.6758   21.8669 C   0  0  0  0  0  0  0  0  0  0  0  0
  1  2  1  0
  2  3  2  3
  3  4  1  0
  4  5  2  3
  5  6  1  0
  6  7  1  0
  7  8  1  0
  8  9  2  0
  8 10  2  0
  8 11  1  0
 11 12  1  0
 12 13  1  0
 13 14  1  0
 14 15  1  0
 15 16  1  0
 16 11  1  0
M  END
>  <ref_pdb>  (941) 
A5394b

>  <subsites>  (941) 
1 - Active Site

>  <HIPPO Compound ID>  (941) 
7466

>  <energy_score>  (941) 
-33.816743

>  <fragmenstein_mode>  (941) 
expansion

>  <scratch_subdir>  (941) 
/opt/xchem-fragalysis-2/maxwin/BulkDock/SCRATCH/511200/C8155-P613

>  <smiles>  (941) 
CC=CC=CCNS(=O)(=O)N1CCCCC1

>  <alias>  (941) 
C8155-P613

>  <ref_mols>  (941) 
A0719a,A5394b

>  <inspiration_score>  (941) 
None

>  <tags>  (941) 
BulkDock Fragalysis export,fragmenstein_placed,openbind_a71ev2a_c1_knitwork_impure,openbind_a71ev2a_c1_scaffolds

>  <fragmenstein_outcome>  (941) 
acceptable

>  <fragmenstein_error>  (941) 


>  <distance_score>  (941) 
0.927359

>  <inchikey>  (941) 
CNXDKPPPZXXLRJ-UHFFFAOYSA-N

>  <name>  (941) 
C8155-P613

>  <HIPPO Pose ID>  (941) 
443916

>  <Energy>  (941) 
-186.390992

>  <exports>  (941) 
['/opt/xchem-fragalysis-2/maxwin/BulkDock/OUTPUTS/openbind_a71ev2a_c1_knitwork_impure_165VXJF.sdf', '/opt/xchem-fragalysis-2/maxwin/BulkDock/OUTPUTS/openbind_a71ev2a_c1_knitwork_impure_1B07QS4.sdf', '/opt/xchem-fragalysis-2/maxwin/BulkDock/OUTPUTS/openbind_a71ev2a_c1_knitwork_impure_1B07X5R.sdf', '/opt/xchem-fragalysis-2/maxwin/openbind-hippo/a71ev2a/openbind_a71ev2a_c1_scaffold_products.sdf', '/opt/xchem-fragalysis-2/maxwin/openbind-hippo/a71ev2a/cycle_01/bulkdock/openbind_a71ev2a_c1_scaffold_products.sdf', '/opt/xchem-fragalysis-2/maxwin/openbind-hippo/a71ev2a/cycle_01/bulkdock/openbind_a71ev2a_c1_scaffolds.sdf']

>  <fragmenstein_runtime>  (941) 
4.343088

$$$$
C8176-P613
     RDKit          3D

 15 15  0  0  0  0  0  0  0  0999 V2000
    8.2299   15.0989   25.3938 C   0  0  0  0  0  0  0  0  0  0  0  0
    8.7095   13.7799   24.7788 C   0  0  2  0  0  0  0  0  0  0  0  0
   10.0670   13.6073   25.2203 O   0  0  0  0  0  0  0  0  0  0  0  0
    8.6752   13.9067   23.2391 C   0  0  0  0  0  0  0  0  0  0  0  0
    7.8620   13.2587   22.5678 O   0  0  0  0  0  0  0  0  0  0  0  0
    9.7042   14.8480   22.6040 C   0  0  0  0  0  0  0  0  0  0  0  0
    9.9942   15.9387   23.3622 F   0  0  0  0  0  0  0  0  0  0  0  0
    9.2928   15.3236   21.3981 F   0  0  0  0  0  0  0  0  0  0  0  0
   11.3510   13.8418   22.3700 Br  0  0  0  0  0  0  0  0  0  0  0  0
    7.9063   12.5968   25.3855 C   0  0  1  0  0  0  0  0  0  0  0  0
    6.4295   12.8033   25.7107 C   0  0  0  0  0  0  0  0  0  0  0  0
    5.9242   11.6386   26.5697 C   0  0  0  0  0  0  0  0  0  0  0  0
    6.3388   10.2564   26.0735 C   0  0  0  0  0  0  0  0  0  0  0  0
    7.7215   10.1466   25.6264 N   0  0  0  0  0  0  0  0  0  0  0  0
    8.1383   11.2304   24.7412 C   0  0  0  0  0  0  0  0  0  0  0  0
  2  1  1  1
  2  3  1  0
  2  4  1  0
  4  5  2  0
  4  6  1  0
  6  7  1  0
  6  8  1  0
  6  9  1  0
  2 10  1  0
 10 11  1  6
 11 12  1  0
 12 13  1  0
 13 14  1  0
 14 15  1  0
 15 10  1  0
M  END
>  <ref_pdb>  (942) 
A5394b

>  <subsites>  (942) 
1 - Active Site

>  <HIPPO Compound ID>  (942) 
11231

>  <energy_score>  (942) 
-24.343822

>  <fragmenstein_mode>  (942) 
expansion

>  <scratch_subdir>  (942) 
/opt/xchem-fragalysis-2/maxwin/BulkDock/SCRATCH/511200/C8176-P613

>  <smiles>  (942) 
C[C@](O)(C(=O)C(F)(F)Br)[C@H]1CCCNC1

>  <alias>  (942) 
C8176-P613

>  <ref_mols>  (942) 
A0719a,A5394b

>  <inspiration_score>  (942) 
None

>  <tags>  (942) 
BulkDock Fragalysis export,fragmenstein_placed,openbind_a71ev2a_c1_knitwork_impure,openbind_a71ev2a_c1_scaffolds

>  <fragmenstein_outcome>  (942) 
acceptable

>  <fragmenstein_error>  (942) 


>  <distance_score>  (942) 
0.942977

>  <inchikey>  (942) 
PZDAOJKGMJJGDC-UHFFFAOYSA-N

>  <name>  (942) 
C8176-P613

>  <HIPPO Pose ID>  (942) 
443930

>  <Energy>  (942) 
79.039628

>  <exports>  (942) 
['/opt/xchem-fragalysis-2/maxwin/BulkDock/OUTPUTS/openbind_a71ev2a_c1_knitwork_impure_165VXJF.sdf', '/opt/xchem-fragalysis-2/maxwin/BulkDock/OUTPUTS/openbind_a71ev2a_c1_knitwork_impure_1B07QS4.sdf', '/opt/xchem-fragalysis-2/maxwin/BulkDock/OUTPUTS/openbind_a71ev2a_c1_knitwork_impure_1B07X5R.sdf', '/opt/xchem-fragalysis-2/maxwin/openbind-hippo/a71ev2a/openbind_a71ev2a_c1_scaffold_products.sdf', '/opt/xchem-fragalysis-2/maxwin/openbind-hippo/a71ev2a/cycle_01/bulkdock/openbind_a71ev2a_c1_scaffold_products.sdf', '/opt/xchem-fragalysis-2/maxwin/openbind-hippo/a71ev2a/cycle_01/bulkdock/openbind_a71ev2a_c1_scaffolds.sdf']

>  <fragmenstein_runtime>  (942) 
1.279859

$$$$
C8841-P444
     RDKit          3D

 15 17  0  0  0  0  0  0  0  0999 V2000
    6.3044   17.4322   25.6303 C   0  0  0  0  0  0  0  0  0  0  0  0
    6.8881   16.3357   26.2255 C   0  0  0  0  0  0  0  0  0  0  0  0
    7.1551   15.3045   25.2776 C   0  0  0  0  0  0  0  0  0  0  0  0
    6.7780   15.6649   24.0034 C   0  0  0  0  0  0  0  0  0  0  0  0
    6.0708   17.1978   23.9532 S   0  0  0  0  0  0  0  0  0  0  0  0
    6.9079   14.7994   22.7932 C   0  0  0  0  0  0  0  0  0  0  0  0
    7.9377   13.7574   22.9624 N   0  0  0  0  0  0  0  0  0  0  0  0
    9.3216   14.0777   22.5343 C   0  0  2  0  0  0  0  0  0  0  0  0
   10.3300   14.5339   23.6053 C   0  0  0  0  0  0  0  0  0  0  0  0
   11.7304   14.6319   22.9941 C   0  0  0  0  0  0  0  0  0  0  0  0
   11.7586   15.5461   21.7734 C   0  0  0  0  0  0  0  0  0  0  0  0
   10.7991   15.0925   20.7766 N   0  0  0  0  0  0  0  0  0  0  0  0
    9.4402   15.0374   21.3126 C   0  0  0  0  0  0  0  0  0  0  0  0
    7.8062   13.0808   24.2676 C   0  0  0  0  0  0  0  0  0  0  0  0
    7.7946   13.9862   25.5278 C   0  0  0  0  0  0  0  0  0  0  0  0
  1  2  2  0
  2  3  1  0
  3  4  2  0
  4  5  1  0
  4  6  1  0
  6  7  1  0
  8  7  1  1
  8  9  1  0
  9 10  1  0
 10 11  1  0
 11 12  1  0
 12 13  1  0
  7 14  1  0
 14 15  1  0
  5  1  1  0
 13  8  1  0
 15  3  1  0
M  END
>  <ref_pdb>  (943) 
A4712a

>  <subsites>  (943) 
1 - Active Site

>  <HIPPO Compound ID>  (943) 
8841

>  <energy_score>  (943) 
-46.592856

>  <fragmenstein_mode>  (943) 
expansion

>  <scratch_subdir>  (943) 
/opt/xchem-fragalysis-2/maxwin/BulkDock/SCRATCH/511200/C8841-P444

>  <smiles>  (943) 
c1cc2c(s1)CN([C@@H]1CCCNC1)CC2

>  <alias>  (943) 
C8841-P444

>  <ref_mols>  (943) 
A1778a,A4712a

>  <inspiration_score>  (943) 
None

>  <tags>  (943) 
BulkDock Fragalysis export,fragmenstein_placed,openbind_a71ev2a_c1_knitwork_impure,openbind_a71ev2a_c1_scaffolds

>  <fragmenstein_outcome>  (943) 
acceptable

>  <fragmenstein_error>  (943) 


>  <distance_score>  (943) 
0.989565

>  <inchikey>  (943) 
RFEZRTLYXHCHBF-UHFFFAOYSA-N

>  <name>  (943) 
C8841-P444

>  <HIPPO Pose ID>  (943) 
444069

>  <Energy>  (943) 
58.562453

>  <exports>  (943) 
['/opt/xchem-fragalysis-2/maxwin/BulkDock/OUTPUTS/openbind_a71ev2a_c1_knitwork_impure_165VXJF.sdf', '/opt/xchem-fragalysis-2/maxwin/BulkDock/OUTPUTS/openbind_a71ev2a_c1_knitwork_impure_1B07QS4.sdf', '/opt/xchem-fragalysis-2/maxwin/BulkDock/OUTPUTS/openbind_a71ev2a_c1_knitwork_impure_1B07X5R.sdf', '/opt/xchem-fragalysis-2/maxwin/openbind-hippo/a71ev2a/openbind_a71ev2a_c1_scaffold_products.sdf', '/opt/xchem-fragalysis-2/maxwin/openbind-hippo/a71ev2a/cycle_01/bulkdock/openbind_a71ev2a_c1_scaffold_products.sdf', '/opt/xchem-fragalysis-2/maxwin/openbind-hippo/a71ev2a/cycle_01/bulkdock/openbind_a71ev2a_c1_scaffolds.sdf']

>  <fragmenstein_runtime>  (943) 
27.527135

$$$$
C8848-P444
     RDKit          3D

 15 17  0  0  0  0  0  0  0  0999 V2000
    3.6998   14.0798   25.2359 C   0  0  0  0  0  0  0  0  0  0  0  0
    4.6301   13.1142   25.5563 C   0  0  0  0  0  0  0  0  0  0  0  0
    5.8477   13.3044   24.8442 C   0  0  0  0  0  0  0  0  0  0  0  0
    5.8007   14.4010   24.0123 C   0  0  0  0  0  0  0  0  0  0  0  0
    4.2978   15.1996   24.0849 S   0  0  0  0  0  0  0  0  0  0  0  0
    6.9325   14.8972   23.1561 C   0  0  0  0  0  0  0  0  0  0  0  0
    8.2470   14.1943   23.3749 N   0  0  0  0  0  0  0  0  0  0  0  0
    9.3498   15.2100   23.2981 C   0  0  0  0  0  0  0  0  0  0  0  0
   10.7516   14.7333   23.7322 C   0  0  0  0  0  0  0  0  0  0  0  0
   11.3852   13.8081   22.7063 C   0  0  0  0  0  0  0  0  0  0  0  0
   11.5112   14.4820   21.4208 N   0  0  0  0  0  0  0  0  0  0  0  0
   10.2004   14.8959   20.9154 C   0  0  0  0  0  0  0  0  0  0  0  0
    9.4947   15.8283   21.8900 C   0  0  0  0  0  0  0  0  0  0  0  0
    8.2966   13.4400   24.6518 C   0  0  0  0  0  0  0  0  0  0  0  0
    7.0955   12.5071   24.9086 C   0  0  0  0  0  0  0  0  0  0  0  0
  1  2  2  0
  2  3  1  0
  3  4  2  0
  4  5  1  0
  4  6  1  0
  6  7  1  0
  7  8  1  0
  8  9  1  0
  9 10  1  0
 10 11  1  0
 11 12  1  0
 12 13  1  0
  7 14  1  0
 14 15  1  0
  5  1  1  0
 13  8  1  0
 15  3  1  0
M  END
>  <ref_pdb>  (944) 
A4712a

>  <subsites>  (944) 
1 - Active Site

>  <HIPPO Compound ID>  (944) 
1386

>  <energy_score>  (944) 
-44.502938

>  <fragmenstein_mode>  (944) 
expansion

>  <scratch_subdir>  (944) 
/opt/xchem-fragalysis-2/maxwin/BulkDock/SCRATCH/511200/C8848-P444

>  <smiles>  (944) 
c1cc2c(s1)CN(C1CCNCC1)CC2

>  <alias>  (944) 
C8848-P444

>  <ref_mols>  (944) 
A1778a,A4712a

>  <inspiration_score>  (944) 
None

>  <tags>  (944) 
BulkDock Fragalysis export,fragmenstein_placed,openbind_a71ev2a_c1_knitwork_impure,openbind_a71ev2a_c1_scaffolds

>  <fragmenstein_outcome>  (944) 
acceptable

>  <fragmenstein_error>  (944) 


>  <distance_score>  (944) 
0.99128

>  <inchikey>  (944) 
ZRDHPXNIJIQHOP-UHFFFAOYSA-N

>  <name>  (944) 
C8848-P444

>  <HIPPO Pose ID>  (944) 
444076

>  <Energy>  (944) 
34.601983

>  <exports>  (944) 
['/opt/xchem-fragalysis-2/maxwin/BulkDock/OUTPUTS/openbind_a71ev2a_c1_knitwork_impure_165VXJF.sdf', '/opt/xchem-fragalysis-2/maxwin/BulkDock/OUTPUTS/openbind_a71ev2a_c1_knitwork_impure_1B07QS4.sdf', '/opt/xchem-fragalysis-2/maxwin/BulkDock/OUTPUTS/openbind_a71ev2a_c1_knitwork_impure_1B07X5R.sdf', '/opt/xchem-fragalysis-2/maxwin/openbind-hippo/a71ev2a/openbind_a71ev2a_c1_scaffold_products.sdf', '/opt/xchem-fragalysis-2/maxwin/openbind-hippo/a71ev2a/cycle_01/bulkdock/openbind_a71ev2a_c1_scaffold_products.sdf', '/opt/xchem-fragalysis-2/maxwin/openbind-hippo/a71ev2a/cycle_01/bulkdock/openbind_a71ev2a_c1_scaffolds.sdf']

>  <fragmenstein_runtime>  (944) 
27.142833

$$$$
C7479-P274
     RDKit          3D

 23 24  0  0  0  0  0  0  0  0999 V2000
    3.4723   12.3835   18.1990 C   0  0  0  0  0  0  0  0  0  0  0  0
    3.3598   12.6105   19.7063 C   0  0  0  0  0  0  0  0  0  0  0  0
    2.3188   11.6679   20.3096 C   0  0  0  0  0  0  0  0  0  0  0  0
    3.0367   14.0215   20.0252 C   0  0  0  0  0  0  0  0  0  0  0  0
    2.0884   14.6096   19.2379 O   0  0  0  0  0  0  0  0  0  0  0  0
    2.0003   15.8719   19.7083 C   0  0  0  0  0  0  0  0  0  0  0  0
    2.7848   16.1485   20.7292 N   0  0  0  0  0  0  0  0  0  0  0  0
    3.4359   14.9471   20.9762 C   0  0  0  0  0  0  0  0  0  0  0  0
    4.3697   14.7851   22.1394 C   0  0  0  0  0  0  0  0  0  0  0  0
    5.6190   15.4679   21.8401 N   0  0  0  0  0  0  0  0  0  0  0  0
    7.0580   14.7269   22.2509 S   0  0  0  0  0  0  0  0  0  0  0  0
    6.8591   13.3543   21.8050 O   0  0  0  0  0  0  0  0  0  0  0  0
    8.0139   15.4808   21.4654 O   0  0  0  0  0  0  0  0  0  0  0  0
    7.0185   14.9497   23.7679 N   0  0  0  0  0  0  0  0  0  0  0  0
    8.3691   14.6407   24.4405 S   0  0  2  0  0  0  0  0  0  0  0  0
    8.2137   15.2498   26.1091 C   0  0  0  0  0  0  0  0  0  0  0  0
    9.6460   15.1448   23.9789 O   0  0  0  0  0  0  0  0  0  0  0  0
    8.5951   12.8685   24.7262 C   0  0  0  0  0  0  0  0  0  0  0  0
    9.3393   12.1964   23.5752 C   0  0  0  0  0  0  0  0  0  0  0  0
    9.3776   10.6707   23.6010 C   0  0  0  0  0  0  0  0  0  0  0  0
    8.2348    9.9493   24.2909 C   0  0  0  0  0  0  0  0  0  0  0  0
    7.4834   10.7085   25.3664 C   0  0  0  0  0  0  0  0  0  0  0  0
    7.2857   12.1764   25.0549 C   0  0  0  0  0  0  0  0  0  0  0  0
  1  2  1  0
  2  3  1  0
  2  4  1  0
  4  5  1  0
  5  6  1  0
  6  7  2  0
  7  8  1  0
  8  9  1  0
  9 10  1  0
 10 11  1  0
 11 12  2  0
 11 13  2  0
 11 14  1  0
 14 15  2  0
 15 16  1  1
 15 17  2  0
 15 18  1  0
 18 19  1  0
 19 20  1  0
 20 21  1  0
 21 22  1  0
 22 23  1  0
  8  4  2  0
 23 18  1  0
M  END
>  <ref_pdb>  (945) 
A4031a

>  <subsites>  (945) 
1 - Active Site

>  <HIPPO Compound ID>  (945) 
29031

>  <energy_score>  (945) 
-238.204962

>  <fragmenstein_mode>  (945) 
expansion

>  <scratch_subdir>  (945) 
/opt/xchem-fragalysis-2/maxwin/BulkDock/SCRATCH/511200/C7479-P274

>  <smiles>  (945) 
CC(C)c1ocnc1CNS(=O)(=O)N=[S@](C)(=O)C1CCCCC1

>  <alias>  (945) 
C7479-P274

>  <ref_mols>  (945) 
A3623a,A4031a

>  <inspiration_score>  (945) 
None

>  <tags>  (945) 
BulkDock Fragalysis export,fragmenstein_placed,openbind_a71ev2a_c1_knitwork_impure,openbind_a71ev2a_c1_scaffolds

>  <fragmenstein_outcome>  (945) 
acceptable

>  <fragmenstein_error>  (945) 


>  <distance_score>  (945) 
0.969972

>  <inchikey>  (945) 
QFZBMJQUWWNYIL-UHFFFAOYSA-N

>  <name>  (945) 
C7479-P274

>  <HIPPO Pose ID>  (945) 
444178

>  <Energy>  (945) 
-241.759229

>  <exports>  (945) 
['/opt/xchem-fragalysis-2/maxwin/BulkDock/OUTPUTS/openbind_a71ev2a_c1_knitwork_impure_165VXJF.sdf', '/opt/xchem-fragalysis-2/maxwin/BulkDock/OUTPUTS/openbind_a71ev2a_c1_knitwork_impure_1B07QS4.sdf', '/opt/xchem-fragalysis-2/maxwin/BulkDock/OUTPUTS/openbind_a71ev2a_c1_knitwork_impure_1B07X5R.sdf', '/opt/xchem-fragalysis-2/maxwin/openbind-hippo/a71ev2a/openbind_a71ev2a_c1_scaffold_products.sdf', '/opt/xchem-fragalysis-2/maxwin/openbind-hippo/a71ev2a/cycle_01/bulkdock/openbind_a71ev2a_c1_scaffold_products.sdf', '/opt/xchem-fragalysis-2/maxwin/openbind-hippo/a71ev2a/cycle_01/bulkdock/openbind_a71ev2a_c1_scaffolds.sdf']

>  <fragmenstein_runtime>  (945) 
4.18226

$$$$
C9954-P364
     RDKit          3D

 10 10  0  0  0  0  0  0  0  0999 V2000
    9.1988   13.2764   26.4699 O   0  0  0  0  0  0  0  0  0  0  0  0
    9.9012   13.1797   25.4659 C   0  0  0  0  0  0  0  0  0  0  0  0
    9.3563   12.6697   24.1699 C   0  0  0  0  0  0  0  0  0  0  0  0
    8.9490   13.8596   23.3228 C   0  0  0  0  0  0  0  0  0  0  0  0
    9.9362   14.3125   22.3602 N   0  0  0  0  0  0  0  0  0  0  0  0
    9.5442   15.2264   21.3034 C   0  0  0  0  0  0  0  0  0  0  0  0
   10.8280   15.4251   20.5210 C   0  0  0  0  0  0  0  0  0  0  0  0
   11.8381   15.1645   21.5068 N   0  0  0  0  0  0  0  0  0  0  0  0
   11.3236   14.3738   22.5256 C   0  0  0  0  0  0  0  0  0  0  0  0
   11.9980   13.8544   23.4000 O   0  0  0  0  0  0  0  0  0  0  0  0
  1  2  2  0
  2  3  1  0
  3  4  1  0
  4  5  1  0
  5  6  1  0
  6  7  1  0
  7  8  1  0
  8  9  1  0
  9 10  2  0
  9  5  1  0
M  END
>  <ref_pdb>  (946) 
A4445b

>  <subsites>  (946) 
1 - Active Site

>  <HIPPO Compound ID>  (946) 
14594

>  <energy_score>  (946) 
-32.92993

>  <fragmenstein_mode>  (946) 
expansion

>  <scratch_subdir>  (946) 
/opt/xchem-fragalysis-2/maxwin/BulkDock/SCRATCH/511200/C9954-P364

>  <smiles>  (946) 
O=CCCN1CCNC1=O

>  <alias>  (946) 
C9954-P364

>  <ref_mols>  (946) 
A4445b,A0528a

>  <inspiration_score>  (946) 
None

>  <tags>  (946) 
BulkDock Fragalysis export,fragmenstein_placed,openbind_a71ev2a_c1_knitwork_impure,openbind_a71ev2a_c1_scaffolds

>  <fragmenstein_outcome>  (946) 
acceptable

>  <fragmenstein_error>  (946) 


>  <distance_score>  (946) 
0.886334

>  <inchikey>  (946) 
BDYCYAQORNKNIO-UHFFFAOYSA-N

>  <name>  (946) 
C9954-P364

>  <HIPPO Pose ID>  (946) 
444441

>  <Energy>  (946) 
-58.352054

>  <exports>  (946) 
['/opt/xchem-fragalysis-2/maxwin/BulkDock/OUTPUTS/openbind_a71ev2a_c1_knitwork_impure_165VXJF.sdf', '/opt/xchem-fragalysis-2/maxwin/BulkDock/OUTPUTS/openbind_a71ev2a_c1_knitwork_impure_1B07QS4.sdf', '/opt/xchem-fragalysis-2/maxwin/BulkDock/OUTPUTS/openbind_a71ev2a_c1_knitwork_impure_1B07X5R.sdf', '/opt/xchem-fragalysis-2/maxwin/openbind-hippo/a71ev2a/openbind_a71ev2a_c1_scaffold_products.sdf', '/opt/xchem-fragalysis-2/maxwin/openbind-hippo/a71ev2a/cycle_01/bulkdock/openbind_a71ev2a_c1_scaffold_products.sdf', '/opt/xchem-fragalysis-2/maxwin/openbind-hippo/a71ev2a/cycle_01/bulkdock/openbind_a71ev2a_c1_scaffolds.sdf']

>  <fragmenstein_runtime>  (946) 
1.277158

$$$$
C6291-P213
     RDKit          3D

 10 11  0  0  0  0  0  0  0  0999 V2000
    6.3559   10.3382   26.2261 C   0  0  0  0  0  0  0  0  0  0  0  0
    7.4140   10.0307   25.3832 C   0  0  0  0  0  0  0  0  0  0  0  0
    8.2315   11.0378   24.8469 C   0  0  0  0  0  0  0  0  0  0  0  0
    9.5606   10.7547   24.0425 C   0  0  1  0  0  0  0  0  0  0  0  0
   10.1024    9.3212   23.8829 C   0  0  0  0  0  0  0  0  0  0  0  0
    9.7390    9.4166   22.4333 C   0  0  0  0  0  0  0  0  0  0  0  0
    9.3633   10.8165   22.6126 N   0  0  0  0  0  0  0  0  0  0  0  0
    7.8276   12.3478   25.1473 C   0  0  0  0  0  0  0  0  0  0  0  0
    6.7408   12.5731   25.9837 C   0  0  0  0  0  0  0  0  0  0  0  0
    6.0213   11.5923   26.5657 N   0  0  0  0  0  0  0  0  0  0  0  0
  1  2  2  0
  2  3  1  0
  4  3  1  1
  4  5  1  0
  5  6  1  0
  6  7  1  0
  3  8  2  0
  8  9  1  0
  9 10  2  0
 10  1  1  0
  7  4  1  0
M  END
>  <ref_pdb>  (947) 
A3548a

>  <subsites>  (947) 
1 - Active Site

>  <HIPPO Compound ID>  (947) 
1304

>  <energy_score>  (947) 
-5.273602

>  <fragmenstein_mode>  (947) 
expansion

>  <scratch_subdir>  (947) 
/opt/xchem-fragalysis-2/maxwin/BulkDock/SCRATCH/511201/C6291-P213

>  <smiles>  (947) 
c1cc([C@H]2CCN2)ccn1

>  <alias>  (947) 
C6291-P213

>  <ref_mols>  (947) 
A3548a,A2629a

>  <inspiration_score>  (947) 
None

>  <tags>  (947) 
BulkDock Fragalysis export,fragmenstein_placed,openbind_a71ev2a_c1_knitwork_impure,openbind_a71ev2a_c1_scaffolds

>  <fragmenstein_outcome>  (947) 
acceptable

>  <fragmenstein_error>  (947) 


>  <distance_score>  (947) 
0.814063

>  <inchikey>  (947) 
KVVWFFVCOKKVCV-UHFFFAOYSA-N

>  <name>  (947) 
C6291-P213

>  <HIPPO Pose ID>  (947) 
445139

>  <Energy>  (947) 
28.971946

>  <exports>  (947) 
['/opt/xchem-fragalysis-2/maxwin/BulkDock/OUTPUTS/openbind_a71ev2a_c1_knitwork_impure_165VXJF.sdf', '/opt/xchem-fragalysis-2/maxwin/BulkDock/OUTPUTS/openbind_a71ev2a_c1_knitwork_impure_1B07QS4.sdf', '/opt/xchem-fragalysis-2/maxwin/BulkDock/OUTPUTS/openbind_a71ev2a_c1_knitwork_impure_1B07X5R.sdf', '/opt/xchem-fragalysis-2/maxwin/openbind-hippo/a71ev2a/openbind_a71ev2a_c1_scaffold_products.sdf', '/opt/xchem-fragalysis-2/maxwin/openbind-hippo/a71ev2a/cycle_01/bulkdock/openbind_a71ev2a_c1_scaffold_products.sdf', '/opt/xchem-fragalysis-2/maxwin/openbind-hippo/a71ev2a/cycle_01/bulkdock/openbind_a71ev2a_c1_scaffolds.sdf']

>  <fragmenstein_runtime>  (947) 
1.15424

$$$$
C6812-P441
     RDKit          3D

 11 12  0  0  0  0  0  0  0  0999 V2000
    9.2874   10.4201   23.8446 C   0  0  0  0  0  0  0  0  0  0  0  0
    9.6640   11.6356   23.3133 C   0  0  0  0  0  0  0  0  0  0  0  0
    9.0626   12.7788   23.8031 C   0  0  0  0  0  0  0  0  0  0  0  0
    9.4083   14.0563   23.3645 N   0  0  0  0  0  0  0  0  0  0  0  0
   10.8335   14.3657   23.1691 C   0  0  0  0  0  0  0  0  0  0  0  0
   10.9114   15.2198   21.9096 C   0  0  0  0  0  0  0  0  0  0  0  0
    9.6885   14.8037   21.1235 C   0  0  0  0  0  0  0  0  0  0  0  0
    8.6433   14.5321   22.1996 C   0  0  0  0  0  0  0  0  0  0  0  0
    8.0942   12.6796   24.7286 N   0  0  0  0  0  0  0  0  0  0  0  0
    7.7955   11.4510   25.1849 C   0  0  0  0  0  0  0  0  0  0  0  0
    8.3551   10.2987   24.7977 N   0  0  0  0  0  0  0  0  0  0  0  0
  1  2  2  0
  2  3  1  0
  3  4  1  0
  4  5  1  0
  5  6  1  0
  6  7  1  0
  7  8  1  0
  3  9  2  0
  9 10  1  0
 10 11  2  0
 11  1  1  0
  8  4  1  0
M  END
>  <ref_pdb>  (948) 
A4708a

>  <subsites>  (948) 
1 - Active Site

>  <HIPPO Compound ID>  (948) 
6812

>  <energy_score>  (948) 
-8.374842

>  <fragmenstein_mode>  (948) 
expansion

>  <scratch_subdir>  (948) 
/opt/xchem-fragalysis-2/maxwin/BulkDock/SCRATCH/511201/C6812-P441

>  <smiles>  (948) 
c1cc(N2CCCC2)ncn1

>  <alias>  (948) 
C6812-P441

>  <ref_mols>  (948) 
A4708a,A1068a

>  <inspiration_score>  (948) 
None

>  <tags>  (948) 
BulkDock Fragalysis export,fragmenstein_placed,openbind_a71ev2a_c1_knitwork_impure,openbind_a71ev2a_c1_scaffolds

>  <fragmenstein_outcome>  (948) 
acceptable

>  <fragmenstein_error>  (948) 


>  <distance_score>  (948) 
0.951889

>  <inchikey>  (948) 
WZRAVWCMDRGDQR-UHFFFAOYSA-N

>  <name>  (948) 
C6812-P441

>  <HIPPO Pose ID>  (948) 
445205

>  <Energy>  (948) 
-29.104428

>  <exports>  (948) 
['/opt/xchem-fragalysis-2/maxwin/BulkDock/OUTPUTS/openbind_a71ev2a_c1_knitwork_impure_165VXJF.sdf', '/opt/xchem-fragalysis-2/maxwin/BulkDock/OUTPUTS/openbind_a71ev2a_c1_knitwork_impure_1B07QS4.sdf', '/opt/xchem-fragalysis-2/maxwin/BulkDock/OUTPUTS/openbind_a71ev2a_c1_knitwork_impure_1B07X5R.sdf', '/opt/xchem-fragalysis-2/maxwin/openbind-hippo/a71ev2a/openbind_a71ev2a_c1_scaffold_products.sdf', '/opt/xchem-fragalysis-2/maxwin/openbind-hippo/a71ev2a/cycle_01/bulkdock/openbind_a71ev2a_c1_scaffold_products.sdf', '/opt/xchem-fragalysis-2/maxwin/openbind-hippo/a71ev2a/cycle_01/bulkdock/openbind_a71ev2a_c1_scaffolds.sdf']

>  <fragmenstein_runtime>  (948) 
1.865415

$$$$
C1394-P423
     RDKit          3D

 18 18  0  0  0  0  0  0  0  0999 V2000
   12.1112   15.0611   23.9003 C   0  0  0  0  0  0  0  0  0  0  0  0
   12.0884   16.2538   22.5586 S   0  0  0  0  0  0  0  0  0  0  0  0
   11.0148   15.4219   21.3805 C   0  0  0  0  0  0  0  0  0  0  0  0
    9.5188   15.6367   21.6808 C   0  0  0  0  0  0  0  0  0  0  0  0
    8.8239   14.8495   20.5930 C   0  0  0  0  0  0  0  0  0  0  0  0
    9.1433   17.1206   21.6685 C   0  0  0  0  0  0  0  0  0  0  0  0
    9.1240   15.0992   22.9722 N   0  0  0  0  0  0  0  0  0  0  0  0
    8.2236   13.8785   23.3269 C   0  0  0  0  0  0  0  0  0  0  0  0
    7.6022   13.1689   22.6349 O   0  0  0  0  0  0  0  0  0  0  0  0
    8.3925   13.7007   24.8479 C   0  0  0  0  0  0  0  0  0  0  0  0
    9.7130   13.4383   25.1361 F   0  0  0  0  0  0  0  0  0  0  0  0
    8.1429   14.8714   25.5139 F   0  0  0  0  0  0  0  0  0  0  0  0
    7.5553   12.6004   25.4621 C   0  0  1  0  0  0  0  0  0  0  0  0
    6.0625   12.9196   25.4901 C   0  0  0  0  0  0  0  0  0  0  0  0
    5.3367   11.8376   26.2783 C   0  0  0  0  0  0  0  0  0  0  0  0
    5.7077   10.4389   25.7994 C   0  0  0  0  0  0  0  0  0  0  0  0
    7.1377   10.2091   25.6322 N   0  0  0  0  0  0  0  0  0  0  0  0
    7.8100   11.2300   24.8413 C   0  0  0  0  0  0  0  0  0  0  0  0
  1  2  1  0
  2  3  1  0
  3  4  1  0
  4  5  1  0
  4  6  1  0
  4  7  1  0
  7  8  1  0
  8  9  2  0
  8 10  1  0
 10 11  1  0
 10 12  1  0
 13 10  1  6
 13 14  1  0
 14 15  1  0
 15 16  1  0
 16 17  1  0
 17 18  1  0
 18 13  1  0
M  END
>  <ref_pdb>  (949) 
A4650a

>  <subsites>  (949) 
1 - Active Site,3 - A0541/A/147/1

>  <HIPPO Compound ID>  (949) 
1394

>  <energy_score>  (949) 
-16.511518

>  <fragmenstein_mode>  (949) 
expansion

>  <scratch_subdir>  (949) 
/opt/xchem-fragalysis-2/maxwin/BulkDock/SCRATCH/511201/C1394-P423

>  <smiles>  (949) 
CSCC(C)(C)NC(=O)C(F)(F)[C@H]1CCCNC1

>  <alias>  (949) 
C1394-P423

>  <ref_mols>  (949) 
A0541a,A1778a,A4650a

>  <inspiration_score>  (949) 
None

>  <tags>  (949) 
BulkDock Fragalysis export,fragmenstein_placed,openbind_a71ev2a_c1_knitwork_impure,openbind_a71ev2a_c1_scaffolds

>  <fragmenstein_outcome>  (949) 
acceptable

>  <fragmenstein_error>  (949) 


>  <distance_score>  (949) 
0.980622

>  <inchikey>  (949) 
WLNDFJQVFATSKU-UHFFFAOYSA-N

>  <name>  (949) 
C1394-P423

>  <HIPPO Pose ID>  (949) 
445390

>  <Energy>  (949) 
90.16955

>  <exports>  (949) 
['/opt/xchem-fragalysis-2/maxwin/BulkDock/OUTPUTS/openbind_a71ev2a_c1_knitwork_impure_165VXJF.sdf', '/opt/xchem-fragalysis-2/maxwin/BulkDock/OUTPUTS/openbind_a71ev2a_c1_knitwork_impure_1B07QS4.sdf', '/opt/xchem-fragalysis-2/maxwin/BulkDock/OUTPUTS/openbind_a71ev2a_c1_knitwork_impure_1B07X5R.sdf', '/opt/xchem-fragalysis-2/maxwin/openbind-hippo/a71ev2a/openbind_a71ev2a_c1_scaffold_products.sdf', '/opt/xchem-fragalysis-2/maxwin/openbind-hippo/a71ev2a/cycle_01/bulkdock/openbind_a71ev2a_c1_scaffold_products.sdf', '/opt/xchem-fragalysis-2/maxwin/openbind-hippo/a71ev2a/cycle_01/bulkdock/openbind_a71ev2a_c1_scaffolds.sdf']

>  <fragmenstein_runtime>  (949) 
3.174195

$$$$
C7479-P279
     RDKit          3D

 23 24  0  0  0  0  0  0  0  0999 V2000
    3.4694   12.2968   18.2244 C   0  0  0  0  0  0  0  0  0  0  0  0
    3.4200   12.4962   19.7381 C   0  0  0  0  0  0  0  0  0  0  0  0
    2.4377   11.5144   20.3766 C   0  0  0  0  0  0  0  0  0  0  0  0
    3.0767   13.8921   20.0964 C   0  0  0  0  0  0  0  0  0  0  0  0
    2.0874   14.4755   19.3599 O   0  0  0  0  0  0  0  0  0  0  0  0
    1.9965   15.7264   19.8606 C   0  0  0  0  0  0  0  0  0  0  0  0
    2.8189   15.9972   20.8532 N   0  0  0  0  0  0  0  0  0  0  0  0
    3.4906   14.8042   21.0529 C   0  0  0  0  0  0  0  0  0  0  0  0
    4.4519   14.6276   22.1858 C   0  0  0  0  0  0  0  0  0  0  0  0
    5.6598   15.3947   21.9114 N   0  0  0  0  0  0  0  0  0  0  0  0
    7.1303   14.6979   22.3114 S   0  0  0  0  0  0  0  0  0  0  0  0
    6.9761   13.3217   21.8633 O   0  0  0  0  0  0  0  0  0  0  0  0
    8.0519   15.4913   21.5245 O   0  0  0  0  0  0  0  0  0  0  0  0
    7.0757   14.9222   23.8277 N   0  0  0  0  0  0  0  0  0  0  0  0
    8.4401   14.6726   24.4997 S   0  0  2  0  0  0  0  0  0  0  0  0
    8.2490   15.2456   26.1765 C   0  0  0  0  0  0  0  0  0  0  0  0
    9.6884   15.2496   24.0448 O   0  0  0  0  0  0  0  0  0  0  0  0
    8.7628   12.9122   24.7638 C   0  0  0  0  0  0  0  0  0  0  0  0
    9.5427   12.3100   23.5983 C   0  0  0  0  0  0  0  0  0  0  0  0
    9.7204   10.7996   23.6468 C   0  0  0  0  0  0  0  0  0  0  0  0
    8.6206    9.9793   24.2899 C   0  0  0  0  0  0  0  0  0  0  0  0
    7.7791   10.6748   25.3434 C   0  0  0  0  0  0  0  0  0  0  0  0
    7.4936   12.1335   25.0531 C   0  0  0  0  0  0  0  0  0  0  0  0
  1  2  1  0
  2  3  1  0
  2  4  1  0
  4  5  1  0
  5  6  1  0
  6  7  2  0
  7  8  1  0
  8  9  1  0
  9 10  1  0
 10 11  1  0
 11 12  2  0
 11 13  2  0
 11 14  1  0
 14 15  2  0
 15 16  1  1
 15 17  2  0
 15 18  1  0
 18 19  1  0
 19 20  1  0
 20 21  1  0
 21 22  1  0
 22 23  1  0
  8  4  2  0
 23 18  1  0
M  END
>  <ref_pdb>  (950) 
A4035b

>  <subsites>  (950) 
1 - Active Site

>  <HIPPO Compound ID>  (950) 
7479

>  <energy_score>  (950) 
-238.563303

>  <fragmenstein_mode>  (950) 
expansion

>  <scratch_subdir>  (950) 
/opt/xchem-fragalysis-2/maxwin/BulkDock/SCRATCH/511201/C7479-P279

>  <smiles>  (950) 
CC(C)c1ocnc1CNS(=O)(=O)N=[S@](C)(=O)C1CCCCC1

>  <alias>  (950) 
C7479-P279

>  <ref_mols>  (950) 
A3623a,A4035b

>  <inspiration_score>  (950) 
None

>  <tags>  (950) 
BulkDock Fragalysis export,fragmenstein_placed,openbind_a71ev2a_c1_knitwork_impure,openbind_a71ev2a_c1_scaffolds

>  <fragmenstein_outcome>  (950) 
acceptable

>  <fragmenstein_error>  (950) 


>  <distance_score>  (950) 
0.895841

>  <inchikey>  (950) 
FDJUGHGTFDESJB-UHFFFAOYSA-N

>  <name>  (950) 
C7479-P279

>  <HIPPO Pose ID>  (950) 
445609

>  <Energy>  (950) 
-242.117571

>  <exports>  (950) 
['/opt/xchem-fragalysis-2/maxwin/BulkDock/OUTPUTS/openbind_a71ev2a_c1_knitwork_impure_165VXJF.sdf', '/opt/xchem-fragalysis-2/maxwin/BulkDock/OUTPUTS/openbind_a71ev2a_c1_knitwork_impure_1B07QS4.sdf', '/opt/xchem-fragalysis-2/maxwin/BulkDock/OUTPUTS/openbind_a71ev2a_c1_knitwork_impure_1B07X5R.sdf', '/opt/xchem-fragalysis-2/maxwin/openbind-hippo/a71ev2a/openbind_a71ev2a_c1_scaffold_products.sdf', '/opt/xchem-fragalysis-2/maxwin/openbind-hippo/a71ev2a/cycle_01/bulkdock/openbind_a71ev2a_c1_scaffold_products.sdf', '/opt/xchem-fragalysis-2/maxwin/openbind-hippo/a71ev2a/cycle_01/bulkdock/openbind_a71ev2a_c1_scaffolds.sdf']

>  <fragmenstein_runtime>  (950) 
4.357752

$$$$
C15051-P343
     RDKit          3D

 14 14  0  0  0  0  0  0  0  0999 V2000
   11.0185   13.3084   24.3148 C   0  0  0  0  0  0  0  0  0  0  0  0
    9.7245   13.3183   23.4939 C   0  0  2  0  0  0  0  0  0  0  0  0
    9.9489   12.5468   22.3331 O   0  0  0  0  0  0  0  0  0  0  0  0
    9.4121   14.7933   23.2113 C   0  0  0  0  0  0  0  0  0  0  0  0
    9.8040   15.6993   23.9608 O   0  0  0  0  0  0  0  0  0  0  0  0
    8.7148   15.0957   21.9163 C   0  0  0  0  0  0  0  0  0  0  0  0
    9.5792   14.9536   20.8683 F   0  0  0  0  0  0  0  0  0  0  0  0
    7.6553   14.2754   21.6704 F   0  0  0  0  0  0  0  0  0  0  0  0
    8.5867   12.6248   24.2456 C   0  0  0  0  0  0  0  0  0  0  0  0
    8.4453   11.2305   24.1849 C   0  0  0  0  0  0  0  0  0  0  0  0
    7.4118   10.6076   24.8767 C   0  0  0  0  0  0  0  0  0  0  0  0
    6.5259   11.3856   25.6040 C   0  0  0  0  0  0  0  0  0  0  0  0
    6.7117   12.7576   25.6018 C   0  0  0  0  0  0  0  0  0  0  0  0
    7.7301   13.3863   24.9685 N   0  0  0  0  0  0  0  0  0  0  0  0
  2  1  1  1
  2  3  1  0
  2  4  1  0
  4  5  2  0
  4  6  1  0
  6  7  1  0
  6  8  1  0
  2  9  1  0
  9 10  2  0
 10 11  1  0
 11 12  2  0
 12 13  1  0
 13 14  2  0
 14  9  1  0
M  END
>  <ref_pdb>  (951) 
A4274a

>  <subsites>  (951) 
1 - Active Site

>  <HIPPO Compound ID>  (951) 
15051

>  <energy_score>  (951) 
-18.145304

>  <fragmenstein_mode>  (951) 
expansion

>  <scratch_subdir>  (951) 
/opt/xchem-fragalysis-2/maxwin/BulkDock/SCRATCH/511201/C15051-P343

>  <smiles>  (951) 
C[C@](O)(C(=O)C(F)F)c1ccccn1

>  <alias>  (951) 
C15051-P343

>  <ref_mols>  (951) 
A0719a,A4274a

>  <inspiration_score>  (951) 
None

>  <tags>  (951) 
BulkDock Fragalysis export,fragmenstein_placed,openbind_a71ev2a_c1_knitwork_impure,openbind_a71ev2a_c1_scaffolds

>  <fragmenstein_outcome>  (951) 
acceptable

>  <fragmenstein_error>  (951) 


>  <distance_score>  (951) 
0.933016

>  <inchikey>  (951) 
MHXYYYOIIYIRRP-UHFFFAOYSA-N

>  <name>  (951) 
C15051-P343

>  <HIPPO Pose ID>  (951) 
445747

>  <Energy>  (951) 
84.495371

>  <exports>  (951) 
['/opt/xchem-fragalysis-2/maxwin/BulkDock/OUTPUTS/openbind_a71ev2a_c1_knitwork_impure_165VXJF.sdf', '/opt/xchem-fragalysis-2/maxwin/BulkDock/OUTPUTS/openbind_a71ev2a_c1_knitwork_impure_1B07QS4.sdf', '/opt/xchem-fragalysis-2/maxwin/BulkDock/OUTPUTS/openbind_a71ev2a_c1_knitwork_impure_1B07X5R.sdf', '/opt/xchem-fragalysis-2/maxwin/openbind-hippo/a71ev2a/openbind_a71ev2a_c1_scaffold_products.sdf', '/opt/xchem-fragalysis-2/maxwin/openbind-hippo/a71ev2a/cycle_01/bulkdock/openbind_a71ev2a_c1_scaffold_products.sdf', '/opt/xchem-fragalysis-2/maxwin/openbind-hippo/a71ev2a/cycle_01/bulkdock/openbind_a71ev2a_c1_scaffolds.sdf']

>  <fragmenstein_runtime>  (951) 
1.203097

$$$$
C15054-P343
     RDKit          3D

 15 15  0  0  0  0  0  0  0  0999 V2000
   10.8842   13.2631   24.3038 C   0  0  0  0  0  0  0  0  0  0  0  0
    9.6230   13.2030   23.4441 C   0  0  2  0  0  0  0  0  0  0  0  0
    9.1346   14.5914   23.3551 N   0  0  0  0  0  0  0  0  0  0  0  0
    8.6632   15.1952   21.8779 S   0  0  0  0  0  0  0  0  0  0  0  0
    7.8278   14.1711   21.2823 O   0  0  0  0  0  0  0  0  0  0  0  0
    8.1019   16.4948   22.1673 O   0  0  0  0  0  0  0  0  0  0  0  0
   10.1778   15.4012   20.9274 C   0  0  0  0  0  0  0  0  0  0  0  0
   11.2093   15.8117   21.8676 C   0  0  0  0  0  0  0  0  0  0  0  0
   12.0368   16.0493   22.6475 N   0  0  0  0  0  0  0  0  0  0  0  0
    8.5884   12.3044   24.1040 C   0  0  0  0  0  0  0  0  0  0  0  0
    8.5944   10.9311   23.8825 C   0  0  0  0  0  0  0  0  0  0  0  0
    7.6637   10.1420   24.5505 C   0  0  0  0  0  0  0  0  0  0  0  0
    6.7386   10.7397   25.3971 C   0  0  0  0  0  0  0  0  0  0  0  0
    6.7789   12.1149   25.5403 C   0  0  0  0  0  0  0  0  0  0  0  0
    7.6995   12.9026   24.9452 N   0  0  0  0  0  0  0  0  0  0  0  0
  2  1  1  1
  2  3  1  0
  3  4  1  0
  4  5  2  0
  4  6  2  0
  4  7  1  0
  7  8  1  0
  8  9  3  0
  2 10  1  0
 10 11  2  0
 11 12  1  0
 12 13  2  0
 13 14  1  0
 14 15  2  0
 15 10  1  0
M  END
>  <ref_pdb>  (952) 
A4274a

>  <subsites>  (952) 
1 - Active Site

>  <HIPPO Compound ID>  (952) 
13878

>  <energy_score>  (952) 
-28.938559

>  <fragmenstein_mode>  (952) 
expansion

>  <scratch_subdir>  (952) 
/opt/xchem-fragalysis-2/maxwin/BulkDock/SCRATCH/511201/C15054-P343

>  <smiles>  (952) 
C[C@H](NS(=O)(=O)CC#N)c1ccccn1

>  <alias>  (952) 
C15054-P343

>  <ref_mols>  (952) 
A0719a,A4274a

>  <inspiration_score>  (952) 
None

>  <tags>  (952) 
BulkDock Fragalysis export,fragmenstein_placed,openbind_a71ev2a_c1_knitwork_impure,openbind_a71ev2a_c1_scaffolds

>  <fragmenstein_outcome>  (952) 
acceptable

>  <fragmenstein_error>  (952) 


>  <distance_score>  (952) 
0.973279

>  <inchikey>  (952) 
QXBXKJNMGXBAQW-UHFFFAOYSA-N

>  <name>  (952) 
C15054-P343

>  <HIPPO Pose ID>  (952) 
445749

>  <Energy>  (952) 
-51.276691

>  <exports>  (952) 
['/opt/xchem-fragalysis-2/maxwin/BulkDock/OUTPUTS/openbind_a71ev2a_c1_knitwork_impure_165VXJF.sdf', '/opt/xchem-fragalysis-2/maxwin/BulkDock/OUTPUTS/openbind_a71ev2a_c1_knitwork_impure_1B07QS4.sdf', '/opt/xchem-fragalysis-2/maxwin/BulkDock/OUTPUTS/openbind_a71ev2a_c1_knitwork_impure_1B07X5R.sdf', '/opt/xchem-fragalysis-2/maxwin/openbind-hippo/a71ev2a/openbind_a71ev2a_c1_scaffold_products.sdf', '/opt/xchem-fragalysis-2/maxwin/openbind-hippo/a71ev2a/cycle_01/bulkdock/openbind_a71ev2a_c1_scaffold_products.sdf', '/opt/xchem-fragalysis-2/maxwin/openbind-hippo/a71ev2a/cycle_01/bulkdock/openbind_a71ev2a_c1_scaffolds.sdf']

>  <fragmenstein_runtime>  (952) 
1.510223

$$$$
C8132-P343
     RDKit          3D

 15 15  0  0  0  0  0  0  0  0999 V2000
    8.1256   14.2754   21.3667 O   0  0  0  0  0  0  0  0  0  0  0  0
    9.1171   15.1974   21.9051 S   0  0  0  0  0  0  0  0  0  0  0  0
    8.7066   16.5544   22.2062 O   0  0  0  0  0  0  0  0  0  0  0  0
    9.5055   14.5467   23.4439 N   0  0  0  0  0  0  0  0  0  0  0  0
    9.7058   13.0717   23.4721 C   0  0  0  0  0  0  0  0  0  0  0  0
    8.6483   12.4620   24.4224 C   0  0  2  0  0  0  0  0  0  0  0  0
    8.3469   11.0153   24.0616 C   0  0  0  0  0  0  0  0  0  0  0  0
    7.2348   10.4071   24.9041 C   0  0  0  0  0  0  0  0  0  0  0  0
    6.5360   11.3788   25.8408 C   0  0  0  0  0  0  0  0  0  0  0  0
    6.3845   12.8042   25.3256 C   0  0  0  0  0  0  0  0  0  0  0  0
    7.4302   13.2863   24.4322 N   0  0  0  0  0  0  0  0  0  0  0  0
   10.7814   15.1634   21.0087 C   0  0  0  0  0  0  0  0  0  0  0  0
   11.5998   16.1571   21.4581 F   0  0  0  0  0  0  0  0  0  0  0  0
   10.6567   15.2936   19.6654 F   0  0  0  0  0  0  0  0  0  0  0  0
   11.4514   14.0000   21.2556 F   0  0  0  0  0  0  0  0  0  0  0  0
  1  2  2  0
  2  3  2  0
  2  4  1  0
  4  5  1  0
  6  5  1  6
  6  7  1  0
  7  8  1  0
  8  9  1  0
  9 10  1  0
 10 11  1  0
  2 12  1  0
 12 13  1  0
 12 14  1  0
 12 15  1  0
 11  6  1  0
M  END
>  <ref_pdb>  (953) 
A4274a

>  <subsites>  (953) 
1 - Active Site

>  <HIPPO Compound ID>  (953) 
8132

>  <energy_score>  (953) 
-35.54911

>  <fragmenstein_mode>  (953) 
expansion

>  <scratch_subdir>  (953) 
/opt/xchem-fragalysis-2/maxwin/BulkDock/SCRATCH/511201/C8132-P343

>  <smiles>  (953) 
O=S(=O)(NC[C@@H]1CCCCN1)C(F)(F)F

>  <alias>  (953) 
C8132-P343

>  <ref_mols>  (953) 
A0719a,A4274a

>  <inspiration_score>  (953) 
None

>  <tags>  (953) 
BulkDock Fragalysis export,fragmenstein_placed,openbind_a71ev2a_c1_knitwork_impure,openbind_a71ev2a_c1_scaffolds

>  <fragmenstein_outcome>  (953) 
acceptable

>  <fragmenstein_error>  (953) 


>  <distance_score>  (953) 
0.945881

>  <inchikey>  (953) 
OHYSAQUMFUOGOB-UHFFFAOYSA-N

>  <name>  (953) 
C8132-P343

>  <HIPPO Pose ID>  (953) 
445760

>  <Energy>  (953) 
110.736235

>  <exports>  (953) 
['/opt/xchem-fragalysis-2/maxwin/BulkDock/OUTPUTS/openbind_a71ev2a_c1_knitwork_impure_165VXJF.sdf', '/opt/xchem-fragalysis-2/maxwin/BulkDock/OUTPUTS/openbind_a71ev2a_c1_knitwork_impure_1B07QS4.sdf', '/opt/xchem-fragalysis-2/maxwin/BulkDock/OUTPUTS/openbind_a71ev2a_c1_knitwork_impure_1B07X5R.sdf', '/opt/xchem-fragalysis-2/maxwin/openbind-hippo/a71ev2a/openbind_a71ev2a_c1_scaffold_products.sdf', '/opt/xchem-fragalysis-2/maxwin/openbind-hippo/a71ev2a/cycle_01/bulkdock/openbind_a71ev2a_c1_scaffold_products.sdf', '/opt/xchem-fragalysis-2/maxwin/openbind-hippo/a71ev2a/cycle_01/bulkdock/openbind_a71ev2a_c1_scaffolds.sdf']

>  <fragmenstein_runtime>  (953) 
3.549513

$$$$
C9179-P22
     RDKit          3D

 15 16  0  0  0  0  0  0  0  0999 V2000
   12.9395   16.7547   20.3534 C   0  0  0  0  0  0  0  0  0  0  0  0
   12.3923   15.9082   21.3788 N   0  0  0  0  0  0  0  0  0  0  0  0
   13.2231   15.2946   22.3721 C   0  0  0  0  0  0  0  0  0  0  0  0
   12.2750   14.3203   23.0262 C   0  0  0  0  0  0  0  0  0  0  0  0
   10.9713   15.1161   23.0794 C   0  0  2  0  0  0  0  0  0  0  0  0
    9.7314   14.2964   23.1387 N   0  0  0  0  0  0  0  0  0  0  0  0
    9.6234   13.3456   24.5375 S   0  0  0  0  0  0  0  0  0  0  0  0
   10.7972   12.5009   24.5020 O   0  0  0  0  0  0  0  0  0  0  0  0
    9.4146   14.2866   25.6161 O   0  0  0  0  0  0  0  0  0  0  0  0
    8.2072   12.2884   24.3764 C   0  0  0  0  0  0  0  0  0  0  0  0
    7.3813   12.0974   25.6500 C   0  0  0  0  0  0  0  0  0  0  0  0
    7.5644   10.6448   25.5695 N   0  0  0  0  0  0  0  0  0  0  0  0
    8.5457   10.7917   24.4938 C   0  0  0  0  0  0  0  0  0  0  0  0
   11.0605   15.9104   21.7796 C   0  0  0  0  0  0  0  0  0  0  0  0
   10.1419   16.4885   21.2183 O   0  0  0  0  0  0  0  0  0  0  0  0
  1  2  1  0
  2  3  1  0
  3  4  1  0
  4  5  1  0
  5  6  1  6
  6  7  1  0
  7  8  2  0
  7  9  2  0
  7 10  1  0
 10 11  1  0
 11 12  1  0
 12 13  1  0
  5 14  1  0
 14 15  2  0
 14  2  1  0
 13 10  1  0
M  END
>  <ref_pdb>  (954) 
A0528a

>  <subsites>  (954) 
1 - Active Site

>  <HIPPO Compound ID>  (954) 
9179

>  <energy_score>  (954) 
-28.744719

>  <fragmenstein_mode>  (954) 
expansion

>  <scratch_subdir>  (954) 
/opt/xchem-fragalysis-2/maxwin/BulkDock/SCRATCH/511201/C9179-P22

>  <smiles>  (954) 
CN1CC[C@H](NS(=O)(=O)C2CNC2)C1=O

>  <alias>  (954) 
C9179-P22

>  <ref_mols>  (954) 
A0528a,A0875a

>  <inspiration_score>  (954) 
None

>  <tags>  (954) 
BulkDock Fragalysis export,fragmenstein_placed,openbind_a71ev2a_c1_knitwork_impure,openbind_a71ev2a_c1_scaffolds

>  <fragmenstein_outcome>  (954) 
acceptable

>  <fragmenstein_error>  (954) 


>  <distance_score>  (954) 
0.956774

>  <inchikey>  (954) 
TXZMGEIPDXEFES-UHFFFAOYSA-N

>  <name>  (954) 
C9179-P22

>  <HIPPO Pose ID>  (954) 
445901

>  <Energy>  (954) 
-55.806912

>  <exports>  (954) 
['/opt/xchem-fragalysis-2/maxwin/BulkDock/OUTPUTS/openbind_a71ev2a_c1_knitwork_impure_165VXJF.sdf', '/opt/xchem-fragalysis-2/maxwin/BulkDock/OUTPUTS/openbind_a71ev2a_c1_knitwork_impure_1B07QS4.sdf', '/opt/xchem-fragalysis-2/maxwin/BulkDock/OUTPUTS/openbind_a71ev2a_c1_knitwork_impure_1B07X5R.sdf', '/opt/xchem-fragalysis-2/maxwin/openbind-hippo/a71ev2a/openbind_a71ev2a_c1_scaffold_products.sdf', '/opt/xchem-fragalysis-2/maxwin/openbind-hippo/a71ev2a/cycle_01/bulkdock/openbind_a71ev2a_c1_scaffold_products.sdf', '/opt/xchem-fragalysis-2/maxwin/openbind-hippo/a71ev2a/cycle_01/bulkdock/openbind_a71ev2a_c1_scaffolds.sdf']

>  <fragmenstein_runtime>  (954) 
2.83863

$$$$
C961-P228
     RDKit          3D

 18 20  0  0  0  0  0  0  0  0999 V2000
   25.5537    9.9076   -1.1525 O   0  0  0  0  0  0  0  0  0  0  0  0
   24.8825   10.8638   -1.2188 C   0  0  0  0  0  0  0  0  0  0  0  0
   23.6397   11.1624   -2.1038 N   0  0  0  0  0  0  0  0  0  0  0  0
   23.0583   10.4216   -3.1018 N   0  0  0  0  0  0  0  0  0  0  0  0
   23.1437   10.9690   -4.3529 C   0  0  0  0  0  0  0  0  0  0  0  0
   23.3156   12.2159   -4.6542 N   0  0  0  0  0  0  0  0  0  0  0  0
   23.2908   12.3793   -6.1201 C   0  0  0  0  0  0  0  0  0  0  0  0
   23.7119   11.0845   -6.7918 C   0  0  0  0  0  0  0  0  0  0  0  0
   23.0360    9.8380   -5.6847 S   0  0  0  0  0  0  0  0  0  0  0  0
   25.2236   12.1370   -0.4047 C   0  0  2  0  0  0  0  0  0  0  0  0
   26.3712   11.8237    0.5855 C   0  0  0  0  0  0  0  0  0  0  0  0
   26.5083   12.8682    1.6915 C   0  0  0  0  0  0  0  0  0  0  0  0
   25.2163   12.9758    2.4946 C   0  0  0  0  0  0  0  0  0  0  0  0
   24.0750   13.0976    1.6207 N   0  0  0  0  0  0  0  0  0  0  0  0
   22.8807   13.6793    1.8900 C   0  0  0  0  0  0  0  0  0  0  0  0
   22.1363   13.6540    0.8076 N   0  0  0  0  0  0  0  0  0  0  0  0
   22.8711   13.0570   -0.1943 N   0  0  0  0  0  0  0  0  0  0  0  0
   24.0372   12.7040    0.3098 C   0  0  0  0  0  0  0  0  0  0  0  0
  1  2  2  0
  2  3  1  0
  3  4  1  0
  4  5  1  0
  5  6  2  0
  6  7  1  0
  7  8  1  0
  8  9  1  0
 10  2  1  1
 10 11  1  0
 11 12  1  0
 12 13  1  0
 13 14  1  0
 14 15  1  0
 15 16  2  0
 16 17  1  0
 17 18  2  0
  9  5  1  0
 18 10  1  0
 18 14  1  0
M  END
>  <ref_pdb>  (955) 
A3868a

>  <subsites>  (955) 
1 - Active Site,6 - A0486/A/147/1

>  <HIPPO Compound ID>  (955) 
961

>  <energy_score>  (955) 
-31.772725

>  <fragmenstein_mode>  (955) 
expansion

>  <scratch_subdir>  (955) 
/opt/xchem-fragalysis-2/maxwin/BulkDock/SCRATCH/511201/C961-P228

>  <smiles>  (955) 
O=C(NNC1=NCCS1)[C@@H]1CCCn2cnnc21

>  <alias>  (955) 
C961-P228

>  <ref_mols>  (955) 
A0239a,A3868a

>  <inspiration_score>  (955) 
None

>  <tags>  (955) 
BulkDock Fragalysis export,fragmenstein_placed,openbind_a71ev2a_c1_knitwork_impure,openbind_a71ev2a_c1_scaffolds

>  <fragmenstein_outcome>  (955) 
acceptable

>  <fragmenstein_error>  (955) 


>  <distance_score>  (955) 
0.549593

>  <inchikey>  (955) 
CLKVTKUYRZLTQV-UHFFFAOYSA-N

>  <name>  (955) 
C961-P228

>  <HIPPO Pose ID>  (955) 
445913

>  <Energy>  (955) 
27.689422

>  <exports>  (955) 
['/opt/xchem-fragalysis-2/maxwin/BulkDock/OUTPUTS/openbind_a71ev2a_c1_knitwork_impure_165VXJF.sdf', '/opt/xchem-fragalysis-2/maxwin/BulkDock/OUTPUTS/openbind_a71ev2a_c1_knitwork_impure_1B07QS4.sdf', '/opt/xchem-fragalysis-2/maxwin/BulkDock/OUTPUTS/openbind_a71ev2a_c1_knitwork_impure_1B07X5R.sdf', '/opt/xchem-fragalysis-2/maxwin/openbind-hippo/a71ev2a/openbind_a71ev2a_c1_scaffold_products.sdf', '/opt/xchem-fragalysis-2/maxwin/openbind-hippo/a71ev2a/cycle_01/bulkdock/openbind_a71ev2a_c1_scaffold_products.sdf', '/opt/xchem-fragalysis-2/maxwin/openbind-hippo/a71ev2a/cycle_01/bulkdock/openbind_a71ev2a_c1_scaffolds.sdf']

>  <fragmenstein_runtime>  (955) 
2.173027

$$$$
C1002-P228
     RDKit          3D

 20 22  0  0  0  0  0  0  0  0999 V2000
   30.4001    8.1988    1.0715 C   0  0  0  0  0  0  0  0  0  0  0  0
   30.1681    9.3147    1.4514 C   0  0  0  0  0  0  0  0  0  0  0  0
   29.8841   10.6889    1.8903 C   0  0  2  0  0  0  0  0  0  0  0  0
   28.4863   10.9621    1.6721 N   0  0  0  0  0  0  0  0  0  0  0  0
   27.5731   12.0669    2.2616 C   0  0  0  0  0  0  0  0  0  0  0  0
   27.7933   12.8764    3.0714 O   0  0  0  0  0  0  0  0  0  0  0  0
   26.2150   11.9426    1.5591 C   0  0  2  0  0  0  0  0  0  0  0  0
   26.3178   12.2764    0.0581 C   0  0  0  0  0  0  0  0  0  0  0  0
   24.9722   12.0567   -0.6342 C   0  0  0  0  0  0  0  0  0  0  0  0
   23.8806   12.7218    0.1107 C   0  0  0  0  0  0  0  0  0  0  0  0
   22.6992   13.0888   -0.3303 N   0  0  0  0  0  0  0  0  0  0  0  0
   22.0358   13.6953    0.7110 N   0  0  0  0  0  0  0  0  0  0  0  0
   22.8250   13.6817    1.7670 C   0  0  0  0  0  0  0  0  0  0  0  0
   22.5286   14.2634    3.0895 C   0  0  0  0  0  0  0  0  0  0  0  0
   23.9912   13.0533    1.4333 N   0  0  0  0  0  0  0  0  0  0  0  0
   25.1870   12.8736    2.2317 C   0  0  0  0  0  0  0  0  0  0  0  0
   30.6577   11.6954    1.0443 C   0  0  0  0  0  0  0  0  0  0  0  0
   30.6936   13.1735    1.5329 C   0  0  0  0  0  0  0  0  0  0  0  0
   32.1457   13.2330    1.0199 C   0  0  0  0  0  0  0  0  0  0  0  0
   32.2036   11.7074    1.2314 C   0  0  0  0  0  0  0  0  0  0  0  0
  1  2  3  0
  3  2  1  6
  3  4  1  0
  4  5  1  0
  5  6  2  0
  7  5  1  1
  7  8  1  0
  8  9  1  0
  9 10  1  0
 10 11  2  0
 11 12  1  0
 12 13  2  0
 13 14  1  0
 13 15  1  0
 15 16  1  0
  3 17  1  0
 17 18  1  0
 18 19  1  0
 19 20  1  0
 16  7  1  0
 20 17  1  0
 15 10  1  0
M  END
>  <ref_pdb>  (956) 
A3868a

>  <subsites>  (956) 
1 - Active Site,6 - A0486/A/147/1

>  <HIPPO Compound ID>  (956) 
1002

>  <energy_score>  (956) 
-25.006146

>  <fragmenstein_mode>  (956) 
expansion

>  <scratch_subdir>  (956) 
/opt/xchem-fragalysis-2/maxwin/BulkDock/SCRATCH/511201/C1002-P228

>  <smiles>  (956) 
C#C[C@H](NC(=O)[C@@H]1CCc2nnc(C)n2C1)C1CCC1

>  <alias>  (956) 
C1002-P228

>  <ref_mols>  (956) 
A0239a,A3868a

>  <inspiration_score>  (956) 
None

>  <tags>  (956) 
BulkDock Fragalysis export,fragmenstein_placed,openbind_a71ev2a_c1_knitwork_impure,openbind_a71ev2a_c1_scaffolds

>  <fragmenstein_outcome>  (956) 
acceptable

>  <fragmenstein_error>  (956) 


>  <distance_score>  (956) 
0.4253

>  <inchikey>  (956) 
XZXXEYWXKJBZSC-UHFFFAOYSA-N

>  <name>  (956) 
C1002-P228

>  <HIPPO Pose ID>  (956) 
445915

>  <Energy>  (956) 
-15.883334

>  <exports>  (956) 
['/opt/xchem-fragalysis-2/maxwin/BulkDock/OUTPUTS/openbind_a71ev2a_c1_knitwork_impure_165VXJF.sdf', '/opt/xchem-fragalysis-2/maxwin/BulkDock/OUTPUTS/openbind_a71ev2a_c1_knitwork_impure_1B07QS4.sdf', '/opt/xchem-fragalysis-2/maxwin/BulkDock/OUTPUTS/openbind_a71ev2a_c1_knitwork_impure_1B07X5R.sdf', '/opt/xchem-fragalysis-2/maxwin/openbind-hippo/a71ev2a/openbind_a71ev2a_c1_scaffold_products.sdf', '/opt/xchem-fragalysis-2/maxwin/openbind-hippo/a71ev2a/cycle_01/bulkdock/openbind_a71ev2a_c1_scaffold_products.sdf', '/opt/xchem-fragalysis-2/maxwin/openbind-hippo/a71ev2a/cycle_01/bulkdock/openbind_a71ev2a_c1_scaffolds.sdf']

>  <fragmenstein_runtime>  (956) 
19.385135

$$$$
C1352-P196
     RDKit          3D

 17 18  0  0  0  0  0  0  0  0999 V2000
   10.9420   15.5413   19.2004 C   0  0  0  0  0  0  0  0  0  0  0  0
   10.8030   15.4978   20.6655 C   0  0  0  0  0  0  0  0  0  0  0  0
    9.8640   15.9785   21.5418 C   0  0  0  0  0  0  0  0  0  0  0  0
   10.3004   15.5160   22.8035 C   0  0  0  0  0  0  0  0  0  0  0  0
    9.6440   15.6655   24.1258 C   0  0  0  0  0  0  0  0  0  0  0  0
    8.1424   15.3932   24.1054 C   0  0  0  0  0  0  0  0  0  0  0  0
    7.7628   14.4970   25.2624 C   0  0  0  0  0  0  0  0  0  0  0  0
    8.2004   14.6438   26.4002 O   0  0  0  0  0  0  0  0  0  0  0  0
    6.8771   13.5207   24.9035 N   0  0  0  0  0  0  0  0  0  0  0  0
    5.5072   13.8324   25.0039 O   0  0  0  0  0  0  0  0  0  0  0  0
    7.1893   12.1918   24.4277 C   0  0  0  0  0  0  0  0  0  0  0  0
    8.6552   11.8677   24.1509 C   0  0  0  0  0  0  0  0  0  0  0  0
    8.6371   10.3512   23.9744 C   0  0  0  0  0  0  0  0  0  0  0  0
    7.4494    9.8516   24.7941 C   0  0  0  0  0  0  0  0  0  0  0  0
    6.7807   11.0840   25.3813 C   0  0  0  0  0  0  0  0  0  0  0  0
   11.4584   14.8499   22.7084 N   0  0  0  0  0  0  0  0  0  0  0  0
   11.7741   14.8470   21.3594 O   0  0  0  0  0  0  0  0  0  0  0  0
  1  2  1  0
  2  3  2  0
  3  4  1  0
  4  5  1  0
  5  6  1  0
  6  7  1  0
  7  8  2  0
  7  9  1  0
  9 10  1  0
  9 11  1  0
 11 12  1  0
 12 13  1  0
 13 14  1  0
 14 15  1  0
  4 16  2  0
 16 17  1  0
 17  2  1  0
 15 11  1  0
M  END
>  <ref_pdb>  (957) 
A3616a

>  <subsites>  (957) 
1 - Active Site

>  <HIPPO Compound ID>  (957) 
3919

>  <energy_score>  (957) 
-1.101926

>  <fragmenstein_mode>  (957) 
expansion

>  <scratch_subdir>  (957) 
/opt/xchem-fragalysis-2/maxwin/BulkDock/SCRATCH/511201/C1352-P196

>  <smiles>  (957) 
Cc1cc(CCC(=O)N(O)C2CCCC2)no1

>  <alias>  (957) 
C1352-P196

>  <ref_mols>  (957) 
A1080a,A3616a

>  <inspiration_score>  (957) 
None

>  <tags>  (957) 
BulkDock Fragalysis export,fragmenstein_placed,openbind_a71ev2a_c1_knitwork_impure,openbind_a71ev2a_c1_scaffolds

>  <fragmenstein_outcome>  (957) 
acceptable

>  <fragmenstein_error>  (957) 


>  <distance_score>  (957) 
0.970446

>  <inchikey>  (957) 
KMXPQZZEYXRUBR-UHFFFAOYSA-N

>  <name>  (957) 
C1352-P196

>  <HIPPO Pose ID>  (957) 
445961

>  <Energy>  (957) 
60.920504

>  <exports>  (957) 
['/opt/xchem-fragalysis-2/maxwin/BulkDock/OUTPUTS/openbind_a71ev2a_c1_knitwork_impure_165VXJF.sdf', '/opt/xchem-fragalysis-2/maxwin/BulkDock/OUTPUTS/openbind_a71ev2a_c1_knitwork_impure_1B07QS4.sdf', '/opt/xchem-fragalysis-2/maxwin/BulkDock/OUTPUTS/openbind_a71ev2a_c1_knitwork_impure_1B07X5R.sdf', '/opt/xchem-fragalysis-2/maxwin/openbind-hippo/a71ev2a/openbind_a71ev2a_c1_scaffold_products.sdf', '/opt/xchem-fragalysis-2/maxwin/openbind-hippo/a71ev2a/cycle_01/bulkdock/openbind_a71ev2a_c1_scaffold_products.sdf', '/opt/xchem-fragalysis-2/maxwin/openbind-hippo/a71ev2a/cycle_01/bulkdock/openbind_a71ev2a_c1_scaffolds.sdf']

>  <fragmenstein_runtime>  (957) 
39.900775

$$$$
C7067-P174
     RDKit          3D

 18 18  0  0  0  0  0  0  0  0999 V2000
    9.8743   16.1169   21.1089 C   0  0  0  0  0  0  0  0  0  0  0  0
   10.7839   14.9018   21.0544 C   0  0  1  0  0  0  0  0  0  0  0  0
   12.2635   15.1607   21.3752 C   0  0  0  0  0  0  0  0  0  0  0  0
   13.1068   16.1387   20.5420 C   0  0  0  0  0  0  0  0  0  0  0  0
   13.0367   17.5858   21.0170 C   0  0  0  0  0  0  0  0  0  0  0  0
   13.9967   18.4982   20.2558 C   0  0  0  0  0  0  0  0  0  0  0  0
   13.8312   18.4062   18.8121 N   0  0  0  0  0  0  0  0  0  0  0  0
   13.9389   17.0102   18.3630 C   0  0  0  0  0  0  0  0  0  0  0  0
   12.9044   16.0943   19.0352 C   0  0  0  0  0  0  0  0  0  0  0  0
   10.3245   13.8781   21.9886 N   0  0  0  0  0  0  0  0  0  0  0  0
    9.8441   13.9989   23.4614 C   0  0  0  0  0  0  0  0  0  0  0  0
    9.6697   14.9444   24.1257 O   0  0  0  0  0  0  0  0  0  0  0  0
    9.7020   12.5847   24.0296 C   0  0  0  0  0  0  0  0  0  0  0  0
    8.2569   12.0468   24.1706 C   0  0  2  0  0  0  0  0  0  0  0  0
    7.4157   12.9649   25.0682 C   0  0  0  0  0  0  0  0  0  0  0  0
    8.2943   10.5918   24.7279 C   0  0  0  0  0  0  0  0  0  0  0  0
    8.9096    9.6035   23.7328 C   0  0  0  0  0  0  0  0  0  0  0  0
    6.9630   10.0342   25.2203 C   0  0  0  0  0  0  0  0  0  0  0  0
  2  1  1  1
  2  3  1  0
  3  4  1  0
  4  5  1  0
  5  6  1  0
  6  7  1  0
  7  8  1  0
  8  9  1  0
  2 10  1  0
 10 11  1  0
 11 12  2  0
 11 13  1  0
 13 14  1  0
 14 15  1  1
 14 16  1  0
 16 17  1  0
 16 18  1  0
  9  4  1  0
M  END
>  <ref_pdb>  (958) 
A3371a

>  <subsites>  (958) 
1 - Active Site

>  <HIPPO Compound ID>  (958) 
4175

>  <energy_score>  (958) 
-14.535519

>  <fragmenstein_mode>  (958) 
expansion

>  <scratch_subdir>  (958) 
/opt/xchem-fragalysis-2/maxwin/BulkDock/SCRATCH/511202/C7067-P174

>  <smiles>  (958) 
CC(C)[C@@H](C)CC(=O)N[C@@H](C)CC1CCNCC1

>  <alias>  (958) 
C7067-P174

>  <ref_mols>  (958) 
A4509a,A3371a

>  <inspiration_score>  (958) 
None

>  <tags>  (958) 
BulkDock Fragalysis export,fragmenstein_placed,openbind_a71ev2a_c1_knitwork_impure,openbind_a71ev2a_c1_scaffolds

>  <fragmenstein_outcome>  (958) 
acceptable

>  <fragmenstein_error>  (958) 


>  <distance_score>  (958) 
0.984605

>  <inchikey>  (958) 
IMBLIAFPKKGXAI-UHFFFAOYSA-N

>  <name>  (958) 
C7067-P174

>  <HIPPO Pose ID>  (958) 
446472

>  <Energy>  (958) 
20.981635

>  <exports>  (958) 
['/opt/xchem-fragalysis-2/maxwin/BulkDock/OUTPUTS/openbind_a71ev2a_c1_knitwork_impure_165VXJF.sdf', '/opt/xchem-fragalysis-2/maxwin/BulkDock/OUTPUTS/openbind_a71ev2a_c1_knitwork_impure_1B07QS4.sdf', '/opt/xchem-fragalysis-2/maxwin/BulkDock/OUTPUTS/openbind_a71ev2a_c1_knitwork_impure_1B07X5R.sdf', '/opt/xchem-fragalysis-2/maxwin/openbind-hippo/a71ev2a/openbind_a71ev2a_c1_scaffold_products.sdf', '/opt/xchem-fragalysis-2/maxwin/openbind-hippo/a71ev2a/cycle_01/bulkdock/openbind_a71ev2a_c1_scaffold_products.sdf', '/opt/xchem-fragalysis-2/maxwin/openbind-hippo/a71ev2a/cycle_01/bulkdock/openbind_a71ev2a_c1_scaffolds.sdf']

>  <fragmenstein_runtime>  (958) 
7.50337

$$$$
C4728-P317
     RDKit          3D

  9  9  0  0  0  0  0  0  0  0999 V2000
    7.0342   12.3110   26.5294 O   0  0  0  0  0  0  0  0  0  0  0  0
    7.6041   12.3669   25.4419 C   0  0  0  0  0  0  0  0  0  0  0  0
    8.6670   13.3873   25.1028 C   0  0  0  0  0  0  0  0  0  0  0  0
    8.6613   13.6977   23.6044 C   0  0  0  0  0  0  0  0  0  0  0  0
    9.4954   14.8450   23.2585 N   0  0  0  0  0  0  0  0  0  0  0  0
   10.9242   14.7059   23.5843 C   0  0  0  0  0  0  0  0  0  0  0  0
   11.6368   15.3816   22.4690 C   0  0  0  0  0  0  0  0  0  0  0  0
   10.7896   15.6455   21.4722 C   0  0  0  0  0  0  0  0  0  0  0  0
    9.4154   15.1985   21.8235 C   0  0  0  0  0  0  0  0  0  0  0  0
  1  2  2  0
  2  3  1  0
  3  4  1  0
  4  5  1  0
  5  6  1  0
  6  7  1  0
  7  8  2  0
  8  9  1  0
  9  5  1  0
M  END
>  <ref_pdb>  (959) 
A4343b

>  <subsites>  (959) 
1 - Active Site

>  <HIPPO Compound ID>  (959) 
35792

>  <energy_score>  (959) 
-24.372667

>  <fragmenstein_mode>  (959) 
expansion

>  <scratch_subdir>  (959) 
/opt/xchem-fragalysis-2/maxwin/BulkDock/SCRATCH/511202/C4728-P317

>  <smiles>  (959) 
O=CCCN1CC=CC1

>  <alias>  (959) 
C4728-P317

>  <ref_mols>  (959) 
A1775a,A4343b

>  <inspiration_score>  (959) 
None

>  <tags>  (959) 
BulkDock Fragalysis export,fragmenstein_placed,openbind_a71ev2a_c1_knitwork_impure,openbind_a71ev2a_c1_scaffolds

>  <fragmenstein_outcome>  (959) 
acceptable

>  <fragmenstein_error>  (959) 


>  <distance_score>  (959) 
0.921355

>  <inchikey>  (959) 
ATECCOVAGPARCV-UHFFFAOYSA-N

>  <name>  (959) 
C4728-P317

>  <HIPPO Pose ID>  (959) 
447866

>  <Energy>  (959) 
-0.293275

>  <exports>  (959) 
['/opt/xchem-fragalysis-2/maxwin/BulkDock/OUTPUTS/openbind_a71ev2a_c1_knitwork_impure_165VXJF.sdf', '/opt/xchem-fragalysis-2/maxwin/BulkDock/OUTPUTS/openbind_a71ev2a_c1_knitwork_impure_1B07QS4.sdf', '/opt/xchem-fragalysis-2/maxwin/BulkDock/OUTPUTS/openbind_a71ev2a_c1_knitwork_impure_1B07X5R.sdf', '/opt/xchem-fragalysis-2/maxwin/openbind-hippo/a71ev2a/openbind_a71ev2a_c1_scaffold_products.sdf', '/opt/xchem-fragalysis-2/maxwin/openbind-hippo/a71ev2a/cycle_01/bulkdock/openbind_a71ev2a_c1_scaffold_products.sdf', '/opt/xchem-fragalysis-2/maxwin/openbind-hippo/a71ev2a/cycle_01/bulkdock/openbind_a71ev2a_c1_scaffolds.sdf']

>  <fragmenstein_runtime>  (959) 
1.323519

$$$$
C36269-P36
     RDKit          3D

 23 25  0  0  0  0  0  0  0  0999 V2000
   25.1752   12.1053    2.0620 C   0  0  0  0  0  0  0  0  0  0  0  0
   24.0433   12.8629    1.6532 O   0  0  0  0  0  0  0  0  0  0  0  0
   24.0498   14.1416    2.2798 C   0  0  0  0  0  0  0  0  0  0  0  0
   22.9862   14.9979    1.6096 C   0  0  0  0  0  0  0  0  0  0  0  0
   23.0833   16.4753    2.0051 C   0  0  1  0  0  0  0  0  0  0  0  0
   24.3051   17.1818    1.4170 C   0  0  0  0  0  0  0  0  0  0  0  0
   21.7693   17.2098    1.6799 C   0  0  0  0  0  0  0  0  0  0  0  0
   21.0635   17.6040    2.5234 O   0  0  0  0  0  0  0  0  0  0  0  0
   21.6073   17.2427    0.1349 N   0  0  0  0  0  0  0  0  0  0  0  0
   20.5784   17.8585   -0.6968 C   0  0  0  0  0  0  0  0  0  0  0  0
   21.0599   18.9332   -1.6350 C   0  0  0  0  0  0  0  0  0  0  0  0
   20.0275   18.5356   -2.6697 N   0  0  0  0  0  0  0  0  0  0  0  0
   18.5475   18.8458   -2.7579 C   0  0  0  0  0  0  0  0  0  0  0  0
   17.8391   19.4041   -1.9988 O   0  0  0  0  0  0  0  0  0  0  0  0
   18.0162   18.3240   -4.0418 C   0  0  0  0  0  0  0  0  0  0  0  0
   18.7412   17.7961   -5.1134 C   0  0  0  0  0  0  0  0  0  0  0  0
   17.8023   17.4831   -6.0211 N   0  0  0  0  0  0  0  0  0  0  0  0
   16.5727   17.7871   -5.5348 C   0  0  0  0  0  0  0  0  0  0  0  0
   16.6446   18.3008   -4.3376 N   0  0  0  0  0  0  0  0  0  0  0  0
   15.5109   17.4504   -6.5011 C   0  0  0  0  0  0  0  0  0  0  0  0
   16.2778   16.5435   -7.4979 C   0  0  0  0  0  0  0  0  0  0  0  0
   17.7671   16.9094   -7.3478 C   0  0  0  0  0  0  0  0  0  0  0  0
   20.2823   17.1505   -1.9899 C   0  0  0  0  0  0  0  0  0  0  0  0
  1  2  1  0
  2  3  1  0
  3  4  1  0
  4  5  1  0
  5  6  1  6
  5  7  1  0
  7  8  2  0
  7  9  1  0
  9 10  1  0
 10 11  1  0
 11 12  1  0
 12 13  1  0
 13 14  2  0
 13 15  1  0
 15 16  2  0
 16 17  1  0
 17 18  1  0
 18 19  2  0
 18 20  1  0
 20 21  1  0
 21 22  1  0
 12 23  1  0
 23 10  1  0
 19 15  1  0
 22 17  1  0
M  END
>  <ref_pdb>  (960) 
A0309a

>  <subsites>  (960) 
1 - Active Site,6 - A0486/A/147/1

>  <HIPPO Compound ID>  (960) 
22039

>  <energy_score>  (960) 
-6.414536

>  <fragmenstein_mode>  (960) 
expansion

>  <scratch_subdir>  (960) 
/opt/xchem-fragalysis-2/maxwin/BulkDock/SCRATCH/511202/C36269-P36

>  <smiles>  (960) 
COCC[C@@H](C)C(=O)NC1CN(C(=O)c2cn3c(n2)CCC3)C1

>  <alias>  (960) 
C36269-P36

>  <ref_mols>  (960) 
A0309a,A4715a

>  <inspiration_score>  (960) 
None

>  <tags>  (960) 
BulkDock Fragalysis export,fragmenstein_placed,openbind_a71ev2a_c1_knitwork_impure,openbind_a71ev2a_c1_scaffolds

>  <fragmenstein_outcome>  (960) 
acceptable

>  <fragmenstein_error>  (960) 


>  <distance_score>  (960) 
0.835787

>  <inchikey>  (960) 
PYOGJXOXCOUBHM-UHFFFAOYSA-N

>  <name>  (960) 
C36269-P36

>  <HIPPO Pose ID>  (960) 
448218

>  <Energy>  (960) 
98.613975

>  <exports>  (960) 
['/opt/xchem-fragalysis-2/maxwin/BulkDock/OUTPUTS/openbind_a71ev2a_c1_knitwork_impure_165VXJF.sdf', '/opt/xchem-fragalysis-2/maxwin/BulkDock/OUTPUTS/openbind_a71ev2a_c1_knitwork_impure_1B07QS4.sdf', '/opt/xchem-fragalysis-2/maxwin/BulkDock/OUTPUTS/openbind_a71ev2a_c1_knitwork_impure_1B07X5R.sdf', '/opt/xchem-fragalysis-2/maxwin/openbind-hippo/a71ev2a/openbind_a71ev2a_c1_scaffold_products.sdf', '/opt/xchem-fragalysis-2/maxwin/openbind-hippo/a71ev2a/cycle_01/bulkdock/openbind_a71ev2a_c1_scaffold_products.sdf', '/opt/xchem-fragalysis-2/maxwin/openbind-hippo/a71ev2a/cycle_01/bulkdock/openbind_a71ev2a_c1_scaffolds.sdf']

>  <fragmenstein_runtime>  (960) 
4.735687

$$$$
C9375-P489
     RDKit          3D

 14 14  0  0  0  0  0  0  0  0999 V2000
   10.7483   15.4050   19.5066 C   0  0  0  0  0  0  0  0  0  0  0  0
   10.5300   15.7125   20.9806 C   0  0  2  0  0  0  0  0  0  0  0  0
   11.7984   15.8103   21.7008 C   0  0  0  0  0  0  0  0  0  0  0  0
   12.6319   15.8268   22.5050 N   0  0  0  0  0  0  0  0  0  0  0  0
    9.6094   14.6840   21.6769 C   0  0  0  0  0  0  0  0  0  0  0  0
   10.0284   14.3868   23.0663 N   0  0  0  0  0  0  0  0  0  0  0  0
    8.9239   14.0076   24.2234 S   0  0  0  0  0  0  0  0  0  0  0  0
    7.8121   14.9121   24.1195 O   0  0  0  0  0  0  0  0  0  0  0  0
    9.6705   13.8716   25.4513 O   0  0  0  0  0  0  0  0  0  0  0  0
    8.3943   12.4930   23.7506 N   0  0  0  0  0  0  0  0  0  0  0  0
    7.3995   11.9215   24.6884 C   0  0  0  0  0  0  0  0  0  0  0  0
    7.6935   10.4392   24.7941 C   0  0  0  0  0  0  0  0  0  0  0  0
    8.7882   10.1435   23.7945 C   0  0  0  0  0  0  0  0  0  0  0  0
    9.4289   11.4808   23.4850 C   0  0  0  0  0  0  0  0  0  0  0  0
  2  1  1  6
  2  3  1  0
  3  4  3  0
  2  5  1  0
  5  6  1  0
  6  7  1  0
  7  8  2  0
  7  9  2  0
  7 10  1  0
 10 11  1  0
 11 12  1  0
 12 13  1  0
 13 14  1  0
 14 10  1  0
M  END
>  <ref_pdb>  (961) 
A4855a

>  <subsites>  (961) 
1 - Active Site

>  <HIPPO Compound ID>  (961) 
9393

>  <energy_score>  (961) 
-41.613884

>  <fragmenstein_mode>  (961) 
expansion

>  <scratch_subdir>  (961) 
/opt/xchem-fragalysis-2/maxwin/BulkDock/SCRATCH/511202/C9375-P489

>  <smiles>  (961) 
C[C@H](C#N)CNS(=O)(=O)N1CCCC1

>  <alias>  (961) 
C9375-P489

>  <ref_mols>  (961) 
A4855a,A0719a

>  <inspiration_score>  (961) 
None

>  <tags>  (961) 
BulkDock Fragalysis export,fragmenstein_placed,openbind_a71ev2a_c1_knitwork_impure,openbind_a71ev2a_c1_scaffolds

>  <fragmenstein_outcome>  (961) 
acceptable

>  <fragmenstein_error>  (961) 


>  <distance_score>  (961) 
0.988776

>  <inchikey>  (961) 
WYAUXRZNPDFNGB-UHFFFAOYSA-N

>  <name>  (961) 
C9375-P489

>  <HIPPO Pose ID>  (961) 
448413

>  <Energy>  (961) 
-161.647592

>  <exports>  (961) 
['/opt/xchem-fragalysis-2/maxwin/BulkDock/OUTPUTS/openbind_a71ev2a_c1_knitwork_impure_165VXJF.sdf', '/opt/xchem-fragalysis-2/maxwin/BulkDock/OUTPUTS/openbind_a71ev2a_c1_knitwork_impure_1B07QS4.sdf', '/opt/xchem-fragalysis-2/maxwin/BulkDock/OUTPUTS/openbind_a71ev2a_c1_knitwork_impure_1B07X5R.sdf', '/opt/xchem-fragalysis-2/maxwin/openbind-hippo/a71ev2a/openbind_a71ev2a_c1_scaffold_products.sdf', '/opt/xchem-fragalysis-2/maxwin/openbind-hippo/a71ev2a/cycle_01/bulkdock/openbind_a71ev2a_c1_scaffold_products.sdf', '/opt/xchem-fragalysis-2/maxwin/openbind-hippo/a71ev2a/cycle_01/bulkdock/openbind_a71ev2a_c1_scaffolds.sdf']

>  <fragmenstein_runtime>  (961) 
17.309953

$$$$
C7646-P138
     RDKit          3D

 13 14  0  0  0  0  0  0  0  0999 V2000
    5.6530   15.8992   21.9314 N   0  0  0  0  0  0  0  0  0  0  0  0
    6.8626   14.8889   22.5268 S   0  0  0  0  0  0  0  0  0  0  0  0
    8.0923   15.5803   22.2214 O   0  0  0  0  0  0  0  0  0  0  0  0
    6.5517   13.5952   21.9635 O   0  0  0  0  0  0  0  0  0  0  0  0
    6.4998   15.0038   24.2789 C   0  0  0  0  0  0  0  0  0  0  0  0
    7.7128   14.7387   25.1595 C   0  0  0  0  0  0  0  0  0  0  0  0
    7.8583   13.2753   25.5603 C   0  0  0  0  0  0  0  0  0  0  0  0
    7.7766   12.3603   24.4392 N   0  0  0  0  0  0  0  0  0  0  0  0
    7.5744   10.9758   24.8825 C   0  0  0  0  0  0  0  0  0  0  0  0
    8.8227   10.2593   24.5926 C   0  0  1  0  0  0  0  0  0  0  0  0
    9.3685    9.8279   23.2733 C   0  0  0  0  0  0  0  0  0  0  0  0
    9.7104   11.1775   23.8408 C   0  0  1  0  0  0  0  0  0  0  0  0
    8.9806   12.4308   23.5957 C   0  0  0  0  0  0  0  0  0  0  0  0
  1  2  1  0
  2  3  2  0
  2  4  2  0
  2  5  1  0
  5  6  1  0
  6  7  1  0
  7  8  1  0
  8  9  1  0
 10  9  1  6
 10 11  1  0
 12 11  1  6
 12 13  1  0
 13  8  1  0
 12 10  1  0
M  END
>  <ref_pdb>  (962) 
A3054a

>  <subsites>  (962) 
1 - Active Site

>  <HIPPO Compound ID>  (962) 
28016

>  <energy_score>  (962) 
-30.326052

>  <fragmenstein_mode>  (962) 
expansion

>  <scratch_subdir>  (962) 
/opt/xchem-fragalysis-2/maxwin/BulkDock/SCRATCH/511202/C7646-P138

>  <smiles>  (962) 
NS(=O)(=O)CCCN1C[C@H]2C[C@H]2C1

>  <alias>  (962) 
C7646-P138

>  <ref_mols>  (962) 
A3054a,A0719a

>  <inspiration_score>  (962) 
None

>  <tags>  (962) 
BulkDock Fragalysis export,fragmenstein_placed,openbind_a71ev2a_c1_knitwork_impure,openbind_a71ev2a_c1_scaffolds

>  <fragmenstein_outcome>  (962) 
acceptable

>  <fragmenstein_error>  (962) 


>  <distance_score>  (962) 
0.93154

>  <inchikey>  (962) 
VNNGVJKCEHEFDX-UHFFFAOYSA-N

>  <name>  (962) 
C7646-P138

>  <HIPPO Pose ID>  (962) 
448512

>  <Energy>  (962) 
-58.675075

>  <exports>  (962) 
['/opt/xchem-fragalysis-2/maxwin/BulkDock/OUTPUTS/openbind_a71ev2a_c1_knitwork_impure_165VXJF.sdf', '/opt/xchem-fragalysis-2/maxwin/BulkDock/OUTPUTS/openbind_a71ev2a_c1_knitwork_impure_1B07QS4.sdf', '/opt/xchem-fragalysis-2/maxwin/BulkDock/OUTPUTS/openbind_a71ev2a_c1_knitwork_impure_1B07X5R.sdf', '/opt/xchem-fragalysis-2/maxwin/openbind-hippo/a71ev2a/openbind_a71ev2a_c1_scaffold_products.sdf', '/opt/xchem-fragalysis-2/maxwin/openbind-hippo/a71ev2a/cycle_01/bulkdock/openbind_a71ev2a_c1_scaffold_products.sdf', '/opt/xchem-fragalysis-2/maxwin/openbind-hippo/a71ev2a/cycle_01/bulkdock/openbind_a71ev2a_c1_scaffolds.sdf']

>  <fragmenstein_runtime>  (962) 
3.655973

$$$$
C7649-P138
     RDKit          3D

 14 15  0  0  0  0  0  0  0  0999 V2000
    5.8293   16.1089   22.0504 N   0  0  0  0  0  0  0  0  0  0  0  0
    6.9026   15.0021   22.7113 S   0  0  0  0  0  0  0  0  0  0  0  0
    8.2099   15.5820   22.5277 O   0  0  0  0  0  0  0  0  0  0  0  0
    6.5338   13.7401   22.1079 O   0  0  0  0  0  0  0  0  0  0  0  0
    6.4152   15.0984   24.4327 C   0  0  0  0  0  0  0  0  0  0  0  0
    7.3331   14.3585   25.4004 C   0  0  0  0  0  0  0  0  0  0  0  0
    7.1567   12.8365   25.3161 C   0  0  0  0  0  0  0  0  0  0  0  0
    8.3741   12.0941   25.0268 N   0  0  0  0  0  0  0  0  0  0  0  0
    9.0215   12.5844   23.8082 C   0  0  0  0  0  0  0  0  0  0  0  0
    9.9766   11.4837   23.4898 C   0  0  0  0  0  0  0  0  0  0  0  0
    9.2066   10.2530   23.8402 C   0  0  0  0  0  0  0  0  0  0  0  0
    9.8336    8.8810   23.9742 C   0  0  0  0  0  0  0  0  0  0  0  0
    9.0735    9.1903   22.7630 C   0  0  0  0  0  0  0  0  0  0  0  0
    8.0825   10.6595   24.7607 C   0  0  0  0  0  0  0  0  0  0  0  0
  1  2  1  0
  2  3  2  0
  2  4  2  0
  2  5  1  0
  5  6  1  0
  6  7  1  0
  7  8  1  0
  8  9  1  0
  9 10  1  0
 10 11  1  0
 11 12  1  0
 12 13  1  0
 11 14  1  0
 14  8  1  0
 13 11  1  0
M  END
>  <ref_pdb>  (963) 
A3054a

>  <subsites>  (963) 
1 - Active Site

>  <HIPPO Compound ID>  (963) 
4809

>  <energy_score>  (963) 
-35.499367

>  <fragmenstein_mode>  (963) 
expansion

>  <scratch_subdir>  (963) 
/opt/xchem-fragalysis-2/maxwin/BulkDock/SCRATCH/511202/C7649-P138

>  <smiles>  (963) 
NS(=O)(=O)CCCN1CCC2(CC2)C1

>  <alias>  (963) 
C7649-P138

>  <ref_mols>  (963) 
A3054a,A0719a

>  <inspiration_score>  (963) 
None

>  <tags>  (963) 
BulkDock Fragalysis export,fragmenstein_placed,openbind_a71ev2a_c1_knitwork_impure,openbind_a71ev2a_c1_scaffolds

>  <fragmenstein_outcome>  (963) 
acceptable

>  <fragmenstein_error>  (963) 


>  <distance_score>  (963) 
0.916681

>  <inchikey>  (963) 
LHBRDYHDWDKHLQ-UHFFFAOYSA-N

>  <name>  (963) 
C7649-P138

>  <HIPPO Pose ID>  (963) 
448514

>  <Energy>  (963) 
-51.982224

>  <exports>  (963) 
['/opt/xchem-fragalysis-2/maxwin/BulkDock/OUTPUTS/openbind_a71ev2a_c1_knitwork_impure_165VXJF.sdf', '/opt/xchem-fragalysis-2/maxwin/BulkDock/OUTPUTS/openbind_a71ev2a_c1_knitwork_impure_1B07QS4.sdf', '/opt/xchem-fragalysis-2/maxwin/BulkDock/OUTPUTS/openbind_a71ev2a_c1_knitwork_impure_1B07X5R.sdf', '/opt/xchem-fragalysis-2/maxwin/openbind-hippo/a71ev2a/openbind_a71ev2a_c1_scaffold_products.sdf', '/opt/xchem-fragalysis-2/maxwin/openbind-hippo/a71ev2a/cycle_01/bulkdock/openbind_a71ev2a_c1_scaffold_products.sdf', '/opt/xchem-fragalysis-2/maxwin/openbind-hippo/a71ev2a/cycle_01/bulkdock/openbind_a71ev2a_c1_scaffolds.sdf']

>  <fragmenstein_runtime>  (963) 
5.379462

$$$$
C7674-P138
     RDKit          3D

 13 14  0  0  0  0  0  0  0  0999 V2000
    5.7596   15.9335   21.9175 N   0  0  0  0  0  0  0  0  0  0  0  0
    7.0446   15.0526   22.5381 S   0  0  0  0  0  0  0  0  0  0  0  0
    8.2371   15.7694   22.1631 O   0  0  0  0  0  0  0  0  0  0  0  0
    6.8181   13.6877   22.1132 O   0  0  0  0  0  0  0  0  0  0  0  0
    6.7156   15.2961   24.2873 C   0  0  0  0  0  0  0  0  0  0  0  0
    7.7494   14.6146   25.1635 C   0  0  0  0  0  0  0  0  0  0  0  0
    7.4786   13.1160   25.1804 C   0  0  0  0  0  0  0  0  0  0  0  0
    8.6715   12.3031   25.3633 N   0  0  0  0  0  0  0  0  0  0  0  0
    9.6005   12.3832   24.2072 C   0  0  0  0  0  0  0  0  0  0  0  0
    9.2268   11.2002   23.3292 C   0  0  0  0  0  0  0  0  0  0  0  0
    8.7419   10.1422   24.2518 C   0  0  2  0  0  0  0  0  0  0  0  0
    7.3223   10.1271   24.7104 C   0  0  0  0  0  0  0  0  0  0  0  0
    8.3184   10.8720   25.4829 C   0  0  2  0  0  0  0  0  0  0  0  0
  1  2  1  0
  2  3  2  0
  2  4  2  0
  2  5  1  0
  5  6  1  0
  6  7  1  0
  7  8  1  0
  8  9  1  0
  9 10  1  0
 11 10  1  6
 11 12  1  0
 13 12  1  6
 13  8  1  0
 13 11  1  0
M  END
>  <ref_pdb>  (964) 
A3054a

>  <subsites>  (964) 
1 - Active Site

>  <HIPPO Compound ID>  (964) 
21997

>  <energy_score>  (964) 
-19.399797

>  <fragmenstein_mode>  (964) 
expansion

>  <scratch_subdir>  (964) 
/opt/xchem-fragalysis-2/maxwin/BulkDock/SCRATCH/511202/C7674-P138

>  <smiles>  (964) 
NS(=O)(=O)CCCN1CC[C@@H]2C[C@@H]21

>  <alias>  (964) 
C7674-P138

>  <ref_mols>  (964) 
A3054a,A0719a

>  <inspiration_score>  (964) 
None

>  <tags>  (964) 
BulkDock Fragalysis export,fragmenstein_placed,openbind_a71ev2a_c1_knitwork_impure,openbind_a71ev2a_c1_scaffolds

>  <fragmenstein_outcome>  (964) 
acceptable

>  <fragmenstein_error>  (964) 


>  <distance_score>  (964) 
0.995201

>  <inchikey>  (964) 
FKUQYJCHXNTLRM-UHFFFAOYSA-N

>  <name>  (964) 
C7674-P138

>  <HIPPO Pose ID>  (964) 
448523

>  <Energy>  (964) 
-65.137257

>  <exports>  (964) 
['/opt/xchem-fragalysis-2/maxwin/BulkDock/OUTPUTS/openbind_a71ev2a_c1_knitwork_impure_165VXJF.sdf', '/opt/xchem-fragalysis-2/maxwin/BulkDock/OUTPUTS/openbind_a71ev2a_c1_knitwork_impure_1B07QS4.sdf', '/opt/xchem-fragalysis-2/maxwin/BulkDock/OUTPUTS/openbind_a71ev2a_c1_knitwork_impure_1B07X5R.sdf', '/opt/xchem-fragalysis-2/maxwin/openbind-hippo/a71ev2a/openbind_a71ev2a_c1_scaffold_products.sdf', '/opt/xchem-fragalysis-2/maxwin/openbind-hippo/a71ev2a/cycle_01/bulkdock/openbind_a71ev2a_c1_scaffold_products.sdf', '/opt/xchem-fragalysis-2/maxwin/openbind-hippo/a71ev2a/cycle_01/bulkdock/openbind_a71ev2a_c1_scaffolds.sdf']

>  <fragmenstein_runtime>  (964) 
2.497846

$$$$
C7678-P138
     RDKit          3D

 13 13  0  0  0  0  0  0  0  0999 V2000
    8.1737   15.6072   22.1069 N   0  0  0  0  0  0  0  0  0  0  0  0
    6.7960   14.7195   22.4309 S   0  0  0  0  0  0  0  0  0  0  0  0
    7.1209   13.3407   22.1407 O   0  0  0  0  0  0  0  0  0  0  0  0
    5.7157   15.3932   21.7484 O   0  0  0  0  0  0  0  0  0  0  0  0
    6.6016   14.9429   24.1911 C   0  0  0  0  0  0  0  0  0  0  0  0
    7.7289   14.3189   25.0053 C   0  0  0  0  0  0  0  0  0  0  0  0
    7.6303   14.7078   26.4878 C   0  0  0  0  0  0  0  0  0  0  0  0
    8.8124   15.5731   26.9801 C   0  0  0  0  0  0  0  0  0  0  0  0
    8.9065   16.9385   26.2666 C   0  0  0  0  0  0  0  0  0  0  0  0
    8.2250   18.0479   27.0579 C   0  0  0  0  0  0  0  0  0  0  0  0
    8.8874   18.2513   28.4210 C   0  0  0  0  0  0  0  0  0  0  0  0
    9.4877   16.9677   28.9967 C   0  0  0  0  0  0  0  0  0  0  0  0
    8.7355   15.7328   28.5144 C   0  0  0  0  0  0  0  0  0  0  0  0
  1  2  1  0
  2  3  2  0
  2  4  2  0
  2  5  1  0
  5  6  1  0
  6  7  1  0
  7  8  1  0
  8  9  1  0
  9 10  1  0
 10 11  1  0
 11 12  1  0
 12 13  1  0
 13  8  1  0
M  END
>  <ref_pdb>  (965) 
A3054a

>  <subsites>  (965) 
1 - Active Site

>  <HIPPO Compound ID>  (965) 
10158

>  <energy_score>  (965) 
-35.438597

>  <fragmenstein_mode>  (965) 
expansion

>  <scratch_subdir>  (965) 
/opt/xchem-fragalysis-2/maxwin/BulkDock/SCRATCH/511202/C7678-P138

>  <smiles>  (965) 
NS(=O)(=O)CCCC1CCCCC1

>  <alias>  (965) 
C7678-P138

>  <ref_mols>  (965) 
A3054a,A0719a

>  <inspiration_score>  (965) 
None

>  <tags>  (965) 
BulkDock Fragalysis export,fragmenstein_placed,openbind_a71ev2a_c1_knitwork_impure,openbind_a71ev2a_c1_scaffolds

>  <fragmenstein_outcome>  (965) 
acceptable

>  <fragmenstein_error>  (965) 


>  <distance_score>  (965) 
0.989508

>  <inchikey>  (965) 
FJTKEURQIPWLEI-UHFFFAOYSA-N

>  <name>  (965) 
C7678-P138

>  <HIPPO Pose ID>  (965) 
448525

>  <Energy>  (965) 
-71.865766

>  <exports>  (965) 
['/opt/xchem-fragalysis-2/maxwin/BulkDock/OUTPUTS/openbind_a71ev2a_c1_knitwork_impure_165VXJF.sdf', '/opt/xchem-fragalysis-2/maxwin/BulkDock/OUTPUTS/openbind_a71ev2a_c1_knitwork_impure_1B07QS4.sdf', '/opt/xchem-fragalysis-2/maxwin/BulkDock/OUTPUTS/openbind_a71ev2a_c1_knitwork_impure_1B07X5R.sdf', '/opt/xchem-fragalysis-2/maxwin/openbind-hippo/a71ev2a/openbind_a71ev2a_c1_scaffold_products.sdf', '/opt/xchem-fragalysis-2/maxwin/openbind-hippo/a71ev2a/cycle_01/bulkdock/openbind_a71ev2a_c1_scaffold_products.sdf', '/opt/xchem-fragalysis-2/maxwin/openbind-hippo/a71ev2a/cycle_01/bulkdock/openbind_a71ev2a_c1_scaffolds.sdf']

>  <fragmenstein_runtime>  (965) 
69.502312

$$$$
C1799-P256
     RDKit          3D

 15 17  0  0  0  0  0  0  0  0999 V2000
    8.7924   10.2646   24.9840 C   0  0  0  0  0  0  0  0  0  0  0  0
    9.4639   10.5797   23.6521 C   0  0  0  0  0  0  0  0  0  0  0  0
    9.8407   12.0630   23.5240 C   0  0  0  0  0  0  0  0  0  0  0  0
    8.7464   12.9400   23.9956 C   0  0  0  0  0  0  0  0  0  0  0  0
    7.7098   12.4848   24.8415 C   0  0  0  0  0  0  0  0  0  0  0  0
    6.8867   13.4626   25.2085 N   0  0  0  0  0  0  0  0  0  0  0  0
    7.3630   14.5854   24.5600 O   0  0  0  0  0  0  0  0  0  0  0  0
    8.4761   14.2772   23.8253 C   0  0  0  0  0  0  0  0  0  0  0  0
    9.0957   15.4484   23.1336 C   0  0  1  0  0  0  0  0  0  0  0  0
   10.5270   15.7211   23.6105 C   0  0  0  0  0  0  0  0  0  0  0  0
   11.6042   15.1151   22.7217 C   0  0  0  0  0  0  0  0  0  0  0  0
   11.3409   15.4132   21.2530 C   0  0  0  0  0  0  0  0  0  0  0  0
   10.0558   14.8644   20.8339 N   0  0  0  0  0  0  0  0  0  0  0  0
    8.9429   15.4268   21.6003 C   0  0  0  0  0  0  0  0  0  0  0  0
    7.5314   11.0824   25.2611 C   0  0  0  0  0  0  0  0  0  0  0  0
  1  2  1  0
  2  3  1  0
  3  4  1  0
  4  5  1  0
  5  6  2  0
  6  7  1  0
  7  8  1  0
  9  8  1  6
  9 10  1  0
 10 11  1  0
 11 12  1  0
 12 13  1  0
 13 14  1  0
  5 15  1  0
 15  1  1  0
  8  4  2  0
 14  9  1  0
M  END
>  <ref_pdb>  (966) 
A3986a

>  <subsites>  (966) 
1 - Active Site

>  <HIPPO Compound ID>  (966) 
1799

>  <energy_score>  (966) 
-43.702492

>  <fragmenstein_mode>  (966) 
expansion

>  <scratch_subdir>  (966) 
/opt/xchem-fragalysis-2/maxwin/BulkDock/SCRATCH/511202/C1799-P256

>  <smiles>  (966) 
C1CCc2c(noc2[C@H]2CCCNC2)C1

>  <alias>  (966) 
C1799-P256

>  <ref_mols>  (966) 
A3986a,A3623a

>  <inspiration_score>  (966) 
None

>  <tags>  (966) 
BulkDock Fragalysis export,fragmenstein_placed,openbind_a71ev2a_c1_knitwork_impure,openbind_a71ev2a_c1_scaffolds

>  <fragmenstein_outcome>  (966) 
acceptable

>  <fragmenstein_error>  (966) 


>  <distance_score>  (966) 
0.989054

>  <inchikey>  (966) 
TYJWRLDKTXVLTC-UHFFFAOYSA-N

>  <name>  (966) 
C1799-P256

>  <HIPPO Pose ID>  (966) 
448762

>  <Energy>  (966) 
21.110053

>  <exports>  (966) 
['/opt/xchem-fragalysis-2/maxwin/BulkDock/OUTPUTS/openbind_a71ev2a_c1_knitwork_impure_165VXJF.sdf', '/opt/xchem-fragalysis-2/maxwin/BulkDock/OUTPUTS/openbind_a71ev2a_c1_knitwork_impure_1B07QS4.sdf', '/opt/xchem-fragalysis-2/maxwin/BulkDock/OUTPUTS/openbind_a71ev2a_c1_knitwork_impure_1B07X5R.sdf', '/opt/xchem-fragalysis-2/maxwin/openbind-hippo/a71ev2a/openbind_a71ev2a_c1_scaffold_products.sdf', '/opt/xchem-fragalysis-2/maxwin/openbind-hippo/a71ev2a/cycle_01/bulkdock/openbind_a71ev2a_c1_scaffold_products.sdf', '/opt/xchem-fragalysis-2/maxwin/openbind-hippo/a71ev2a/cycle_01/bulkdock/openbind_a71ev2a_c1_scaffolds.sdf']

>  <fragmenstein_runtime>  (966) 
30.768566

$$$$
C7506-P306
     RDKit          3D

 16 16  0  0  0  0  0  0  0  0999 V2000
    5.3555    9.8104   26.3015 C   0  0  0  0  0  0  0  0  0  0  0  0
    5.5154   11.2992   26.5683 C   0  0  1  0  0  0  0  0  0  0  0  0
    4.9438   11.5365   27.9942 C   0  0  0  0  0  0  0  0  0  0  0  0
    3.5774   11.1219   28.0979 O   0  0  0  0  0  0  0  0  0  0  0  0
    3.1939   10.9367   29.4714 C   0  0  0  0  0  0  0  0  0  0  0  0
    1.6995   10.6898   29.6375 C   0  0  0  0  0  0  0  0  0  0  0  0
    1.3025    9.5422   29.0478 F   0  0  0  0  0  0  0  0  0  0  0  0
    1.3891   10.6020   30.9534 F   0  0  0  0  0  0  0  0  0  0  0  0
    0.9839   11.7100   29.1165 F   0  0  0  0  0  0  0  0  0  0  0  0
    6.8988   11.8134   26.5844 N   0  0  0  0  0  0  0  0  0  0  0  0
    7.8142   11.6875   25.4428 C   0  0  1  0  0  0  0  0  0  0  0  0
    8.1856   10.2869   24.9916 C   0  0  0  0  0  0  0  0  0  0  0  0
    9.3006   10.2598   23.9498 C   0  0  0  0  0  0  0  0  0  0  0  0
    9.6888   11.6488   23.4532 C   0  0  0  0  0  0  0  0  0  0  0  0
    8.5255   12.4776   23.1476 N   0  0  0  0  0  0  0  0  0  0  0  0
    7.6348   12.6927   24.2945 C   0  0  0  0  0  0  0  0  0  0  0  0
  2  1  1  1
  2  3  1  0
  3  4  1  0
  4  5  1  0
  5  6  1  0
  6  7  1  0
  6  8  1  0
  6  9  1  0
  2 10  1  0
 11 10  1  6
 11 12  1  0
 12 13  1  0
 13 14  1  0
 14 15  1  0
 15 16  1  0
 16 11  1  0
M  END
>  <ref_pdb>  (967) 
A4322a

>  <subsites>  (967) 
1 - Active Site

>  <HIPPO Compound ID>  (967) 
8891

>  <energy_score>  (967) 
-28.057229

>  <fragmenstein_mode>  (967) 
expansion

>  <scratch_subdir>  (967) 
/opt/xchem-fragalysis-2/maxwin/BulkDock/SCRATCH/512217/C7506-P306

>  <smiles>  (967) 
C[C@@H](COCC(F)(F)F)N[C@H]1CCCNC1

>  <alias>  (967) 
C7506-P306

>  <ref_mols>  (967) 
A1445a,A4322a

>  <inspiration_score>  (967) 
None

>  <tags>  (967) 
BulkDock Fragalysis export,fragmenstein_placed,openbind_a71ev2a_c1_knitwork_impure,openbind_a71ev2a_c1_scaffolds

>  <fragmenstein_outcome>  (967) 
acceptable

>  <fragmenstein_error>  (967) 


>  <distance_score>  (967) 
0.954204

>  <inchikey>  (967) 
GFQVOONUDCSYCR-UHFFFAOYSA-N

>  <name>  (967) 
C7506-P306

>  <HIPPO Pose ID>  (967) 
449545

>  <Energy>  (967) 
110.076793

>  <exports>  (967) 
['/opt/xchem-fragalysis-2/maxwin/BulkDock/OUTPUTS/openbind_a71ev2a_c1_knitwork_impure_165VXJF.sdf', '/opt/xchem-fragalysis-2/maxwin/BulkDock/OUTPUTS/openbind_a71ev2a_c1_knitwork_impure_1B07QS4.sdf', '/opt/xchem-fragalysis-2/maxwin/BulkDock/OUTPUTS/openbind_a71ev2a_c1_knitwork_impure_1B07X5R.sdf', '/opt/xchem-fragalysis-2/maxwin/openbind-hippo/a71ev2a/openbind_a71ev2a_c1_scaffold_products.sdf', '/opt/xchem-fragalysis-2/maxwin/openbind-hippo/a71ev2a/cycle_01/bulkdock/openbind_a71ev2a_c1_scaffold_products.sdf', '/opt/xchem-fragalysis-2/maxwin/openbind-hippo/a71ev2a/cycle_01/bulkdock/openbind_a71ev2a_c1_scaffolds.sdf']

>  <fragmenstein_runtime>  (967) 
7.089834

$$$$
C6726-P252
     RDKit          3D

 13 13  0  0  0  0  0  0  0  0999 V2000
   11.5153   14.8850   18.8459 C   0  0  0  0  0  0  0  0  0  0  0  0
   11.2362   15.6926   20.1029 C   0  0  0  0  0  0  0  0  0  0  0  0
   10.0348   16.5874   19.8998 C   0  0  0  0  0  0  0  0  0  0  0  0
   11.1113   14.8311   21.3542 C   0  0  0  0  0  0  0  0  0  0  0  0
    9.7727   14.8125   21.8558 O   0  0  0  0  0  0  0  0  0  0  0  0
    9.7046   14.1514   23.1211 C   0  0  1  0  0  0  0  0  0  0  0  0
    9.9900   15.1464   24.2412 C   0  0  0  0  0  0  0  0  0  0  0  0
    8.3046   13.5474   23.2671 C   0  0  0  0  0  0  0  0  0  0  0  0
    8.3654   12.1716   23.8484 C   0  0  0  0  0  0  0  0  0  0  0  0
    9.2685   11.2442   23.6011 N   0  0  0  0  0  0  0  0  0  0  0  0
    8.8534   10.1227   24.2652 C   0  0  0  0  0  0  0  0  0  0  0  0
    7.6860   10.3746   24.9434 C   0  0  0  0  0  0  0  0  0  0  0  0
    7.3891   11.6829   24.6788 N   0  0  0  0  0  0  0  0  0  0  0  0
  1  2  1  0
  2  3  1  0
  2  4  1  0
  4  5  1  0
  5  6  1  0
  6  7  1  1
  6  8  1  0
  8  9  1  0
  9 10  2  0
 10 11  1  0
 11 12  2  0
 12 13  1  0
 13  9  1  0
M  END
>  <ref_pdb>  (968) 
A3975a

>  <subsites>  (968) 
1 - Active Site

>  <HIPPO Compound ID>  (968) 
20946

>  <energy_score>  (968) 
-20.424537

>  <fragmenstein_mode>  (968) 
expansion

>  <scratch_subdir>  (968) 
/opt/xchem-fragalysis-2/maxwin/BulkDock/SCRATCH/512217/C6726-P252

>  <smiles>  (968) 
CC(C)CO[C@@H](C)Cc1ncc[nH]1

>  <alias>  (968) 
C6726-P252

>  <ref_mols>  (968) 
A3975a,A3371a

>  <inspiration_score>  (968) 
None

>  <tags>  (968) 
BulkDock Fragalysis export,fragmenstein_placed,openbind_a71ev2a_c1_knitwork_impure,openbind_a71ev2a_c1_scaffolds

>  <fragmenstein_outcome>  (968) 
acceptable

>  <fragmenstein_error>  (968) 


>  <distance_score>  (968) 
0.87075

>  <inchikey>  (968) 
YQOYVOMTPHOFRP-UHFFFAOYSA-N

>  <name>  (968) 
C6726-P252

>  <HIPPO Pose ID>  (968) 
449639

>  <Energy>  (968) 
26.438617

>  <exports>  (968) 
['/opt/xchem-fragalysis-2/maxwin/BulkDock/OUTPUTS/openbind_a71ev2a_c1_knitwork_impure_165VXJF.sdf', '/opt/xchem-fragalysis-2/maxwin/BulkDock/OUTPUTS/openbind_a71ev2a_c1_knitwork_impure_1B07QS4.sdf', '/opt/xchem-fragalysis-2/maxwin/BulkDock/OUTPUTS/openbind_a71ev2a_c1_knitwork_impure_1B07X5R.sdf', '/opt/xchem-fragalysis-2/maxwin/openbind-hippo/a71ev2a/openbind_a71ev2a_c1_scaffold_products.sdf', '/opt/xchem-fragalysis-2/maxwin/openbind-hippo/a71ev2a/cycle_01/bulkdock/openbind_a71ev2a_c1_scaffold_products.sdf', '/opt/xchem-fragalysis-2/maxwin/openbind-hippo/a71ev2a/cycle_01/bulkdock/openbind_a71ev2a_c1_scaffolds.sdf']

>  <fragmenstein_runtime>  (968) 
11.490678

$$$$
C13035-P321
     RDKit          3D

 18 19  0  0  0  0  0  0  0  0999 V2000
    3.5786   12.0878   30.7960 C   0  0  0  0  0  0  0  0  0  0  0  0
    3.2365   11.0237   29.7551 C   0  0  2  0  0  0  0  0  0  0  0  0
    3.6419   11.5398   28.3685 C   0  0  0  0  0  0  0  0  0  0  0  0
    4.9425   10.9111   27.8726 C   0  0  0  0  0  0  0  0  0  0  0  0
    5.3093    9.8521   28.1943 O   0  0  0  0  0  0  0  0  0  0  0  0
    5.5467   11.9185   26.8653 N   0  0  0  0  0  0  0  0  0  0  0  0
    6.6043   11.7992   26.0316 C   0  0  0  0  0  0  0  0  0  0  0  0
    7.3084   10.6178   25.6498 C   0  0  0  0  0  0  0  0  0  0  0  0
    8.2401   11.0746   24.7585 C   0  0  0  0  0  0  0  0  0  0  0  0
    8.0536   12.4120   24.6921 N   0  0  0  0  0  0  0  0  0  0  0  0
    7.0811   12.9001   25.4388 N   0  0  0  0  0  0  0  0  0  0  0  0
    8.9540   13.1209   23.8138 C   0  0  0  0  0  0  0  0  0  0  0  0
   10.0061   12.0364   23.5494 C   0  0  0  0  0  0  0  0  0  0  0  0
    9.3291   10.6671   23.8574 C   0  0  0  0  0  0  0  0  0  0  0  0
    1.7556   10.6922   29.7871 C   0  0  0  0  0  0  0  0  0  0  0  0
    1.3605   10.3304   31.0253 F   0  0  0  0  0  0  0  0  0  0  0  0
    1.4647    9.6732   28.9478 F   0  0  0  0  0  0  0  0  0  0  0  0
    1.0110   11.7519   29.4058 F   0  0  0  0  0  0  0  0  0  0  0  0
  2  1  1  1
  2  3  1  0
  3  4  1  0
  4  5  2  0
  4  6  1  0
  6  7  1  0
  7  8  1  0
  8  9  2  0
  9 10  1  0
 10 11  1  0
 10 12  1  0
 12 13  1  0
 13 14  1  0
  2 15  1  0
 15 16  1  0
 15 17  1  0
 15 18  1  0
 11  7  2  0
 14  9  1  0
M  END
>  <ref_pdb>  (969) 
A4350a

>  <subsites>  (969) 
1 - Active Site

>  <HIPPO Compound ID>  (969) 
1109

>  <energy_score>  (969) 
-46.086018

>  <fragmenstein_mode>  (969) 
expansion

>  <scratch_subdir>  (969) 
/opt/xchem-fragalysis-2/maxwin/BulkDock/SCRATCH/512217/C13035-P321

>  <smiles>  (969) 
C[C@H](CC(=O)Nc1cc2n(n1)CCC2)C(F)(F)F

>  <alias>  (969) 
C13035-P321

>  <ref_mols>  (969) 
A1445a,A4350a

>  <inspiration_score>  (969) 
None

>  <tags>  (969) 
BulkDock Fragalysis export,fragmenstein_placed,openbind_a71ev2a_c1_knitwork_impure,openbind_a71ev2a_c1_scaffolds

>  <fragmenstein_outcome>  (969) 
acceptable

>  <fragmenstein_error>  (969) 


>  <distance_score>  (969) 
0.982499

>  <inchikey>  (969) 
XPBCDWNBSRTCDV-UHFFFAOYSA-N

>  <name>  (969) 
C13035-P321

>  <HIPPO Pose ID>  (969) 
449813

>  <Energy>  (969) 
-20.625827

>  <exports>  (969) 
['/opt/xchem-fragalysis-2/maxwin/BulkDock/OUTPUTS/openbind_a71ev2a_c1_knitwork_impure_165VXJF.sdf', '/opt/xchem-fragalysis-2/maxwin/BulkDock/OUTPUTS/openbind_a71ev2a_c1_knitwork_impure_1B07QS4.sdf', '/opt/xchem-fragalysis-2/maxwin/BulkDock/OUTPUTS/openbind_a71ev2a_c1_knitwork_impure_1B07X5R.sdf', '/opt/xchem-fragalysis-2/maxwin/openbind-hippo/a71ev2a/openbind_a71ev2a_c1_scaffold_products.sdf', '/opt/xchem-fragalysis-2/maxwin/openbind-hippo/a71ev2a/cycle_01/bulkdock/openbind_a71ev2a_c1_scaffold_products.sdf', '/opt/xchem-fragalysis-2/maxwin/openbind-hippo/a71ev2a/cycle_01/bulkdock/openbind_a71ev2a_c1_scaffolds.sdf']

>  <fragmenstein_runtime>  (969) 
3.523242

$$$$
C11210-P213
     RDKit          3D

 11 11  0  0  0  0  0  0  0  0999 V2000
   10.8093   15.4757   23.5228 C   0  0  0  0  0  0  0  0  0  0  0  0
    9.8146   14.6846   22.6841 C   0  0  0  0  0  0  0  0  0  0  0  0
    8.6981   14.0639   23.5224 C   0  0  0  0  0  0  0  0  0  0  0  0
    9.1441   12.8414   24.2967 C   0  0  0  0  0  0  0  0  0  0  0  0
   10.3066   12.4623   24.4002 O   0  0  0  0  0  0  0  0  0  0  0  0
    8.1088   12.0266   24.9467 C   0  0  0  0  0  0  0  0  0  0  0  0
    8.1395   10.6476   24.7789 C   0  0  0  0  0  0  0  0  0  0  0  0
    7.2072    9.8770   25.4566 C   0  0  0  0  0  0  0  0  0  0  0  0
    6.3094   10.4979   26.3076 C   0  0  0  0  0  0  0  0  0  0  0  0
    6.2703   11.8321   26.5024 N   0  0  0  0  0  0  0  0  0  0  0  0
    7.1574   12.5750   25.7941 C   0  0  0  0  0  0  0  0  0  0  0  0
  1  2  1  0
  2  3  1  0
  3  4  1  0
  4  5  2  0
  4  6  1  0
  6  7  2  0
  7  8  1  0
  8  9  2  0
  9 10  1  0
 10 11  2  0
 11  6  1  0
M  END
>  <ref_pdb>  (970) 
A3548a

>  <subsites>  (970) 
1 - Active Site

>  <HIPPO Compound ID>  (970) 
5394

>  <energy_score>  (970) 
-10.395968

>  <fragmenstein_mode>  (970) 
expansion

>  <scratch_subdir>  (970) 
/opt/xchem-fragalysis-2/maxwin/BulkDock/SCRATCH/512217/C11210-P213

>  <smiles>  (970) 
CCCC(=O)c1cccnc1

>  <alias>  (970) 
C11210-P213

>  <ref_mols>  (970) 
A1779a,A3548a

>  <inspiration_score>  (970) 
None

>  <tags>  (970) 
BulkDock Fragalysis export,fragmenstein_placed,openbind_a71ev2a_c1_knitwork_impure,openbind_a71ev2a_c1_scaffolds

>  <fragmenstein_outcome>  (970) 
acceptable

>  <fragmenstein_error>  (970) 


>  <distance_score>  (970) 
0.920453

>  <inchikey>  (970) 
RYAINGBGWASFKK-UHFFFAOYSA-N

>  <name>  (970) 
C11210-P213

>  <HIPPO Pose ID>  (970) 
450027

>  <Energy>  (970) 
35.768734

>  <exports>  (970) 
['/opt/xchem-fragalysis-2/maxwin/BulkDock/OUTPUTS/openbind_a71ev2a_c1_knitwork_impure_165VXJF.sdf', '/opt/xchem-fragalysis-2/maxwin/BulkDock/OUTPUTS/openbind_a71ev2a_c1_knitwork_impure_1B07QS4.sdf', '/opt/xchem-fragalysis-2/maxwin/BulkDock/OUTPUTS/openbind_a71ev2a_c1_knitwork_impure_1B07X5R.sdf', '/opt/xchem-fragalysis-2/maxwin/openbind-hippo/a71ev2a/openbind_a71ev2a_c1_scaffold_products.sdf', '/opt/xchem-fragalysis-2/maxwin/openbind-hippo/a71ev2a/cycle_01/bulkdock/openbind_a71ev2a_c1_scaffold_products.sdf', '/opt/xchem-fragalysis-2/maxwin/openbind-hippo/a71ev2a/cycle_01/bulkdock/openbind_a71ev2a_c1_scaffolds.sdf']

>  <fragmenstein_runtime>  (970) 
0.864166

$$$$
C11229-P213
     RDKit          3D

 15 15  0  0  0  0  0  0  0  0999 V2000
   10.9939   15.3530   19.2131 C   0  0  0  0  0  0  0  0  0  0  0  0
   11.4510   15.6964   20.2682 C   0  0  0  0  0  0  0  0  0  0  0  0
   12.0803   16.2197   21.4841 C   0  0  0  0  0  0  0  0  0  0  0  0
   12.0234   15.2634   22.6692 C   0  0  0  0  0  0  0  0  0  0  0  0
   10.7028   15.2829   23.4355 C   0  0  0  0  0  0  0  0  0  0  0  0
    9.5760   14.5710   22.6836 C   0  0  0  0  0  0  0  0  0  0  0  0
    8.5067   14.0432   23.6335 C   0  0  0  0  0  0  0  0  0  0  0  0
    8.9711   12.7989   24.3629 C   0  0  0  0  0  0  0  0  0  0  0  0
   10.1337   12.4073   24.4213 O   0  0  0  0  0  0  0  0  0  0  0  0
    7.9576   11.9813   25.0339 C   0  0  0  0  0  0  0  0  0  0  0  0
    7.9992   10.6040   24.8633 C   0  0  0  0  0  0  0  0  0  0  0  0
    7.0800    9.8288   25.5491 C   0  0  0  0  0  0  0  0  0  0  0  0
    6.1896   10.4414   26.4136 C   0  0  0  0  0  0  0  0  0  0  0  0
    6.1426   11.7746   26.6113 N   0  0  0  0  0  0  0  0  0  0  0  0
    7.0138   12.5245   25.8924 C   0  0  0  0  0  0  0  0  0  0  0  0
  1  2  3  0
  2  3  1  0
  3  4  1  0
  4  5  1  0
  5  6  1  0
  6  7  1  0
  7  8  1  0
  8  9  2  0
  8 10  1  0
 10 11  2  0
 11 12  1  0
 12 13  2  0
 13 14  1  0
 14 15  2  0
 15 10  1  0
M  END
>  <ref_pdb>  (971) 
A3548a

>  <subsites>  (971) 
1 - Active Site

>  <HIPPO Compound ID>  (971) 
21168

>  <energy_score>  (971) 
-9.796384

>  <fragmenstein_mode>  (971) 
expansion

>  <scratch_subdir>  (971) 
/opt/xchem-fragalysis-2/maxwin/BulkDock/SCRATCH/512217/C11229-P213

>  <smiles>  (971) 
C#CCCCCCC(=O)c1cccnc1

>  <alias>  (971) 
C11229-P213

>  <ref_mols>  (971) 
A1779a,A3548a

>  <inspiration_score>  (971) 
None

>  <tags>  (971) 
BulkDock Fragalysis export,fragmenstein_placed,openbind_a71ev2a_c1_knitwork_impure,openbind_a71ev2a_c1_scaffolds

>  <fragmenstein_outcome>  (971) 
acceptable

>  <fragmenstein_error>  (971) 


>  <distance_score>  (971) 
0.840116

>  <inchikey>  (971) 
FKMAEMGSWVNCKY-UHFFFAOYSA-N

>  <name>  (971) 
C11229-P213

>  <HIPPO Pose ID>  (971) 
450036

>  <Energy>  (971) 
44.011513

>  <exports>  (971) 
['/opt/xchem-fragalysis-2/maxwin/BulkDock/OUTPUTS/openbind_a71ev2a_c1_knitwork_impure_165VXJF.sdf', '/opt/xchem-fragalysis-2/maxwin/BulkDock/OUTPUTS/openbind_a71ev2a_c1_knitwork_impure_1B07QS4.sdf', '/opt/xchem-fragalysis-2/maxwin/BulkDock/OUTPUTS/openbind_a71ev2a_c1_knitwork_impure_1B07X5R.sdf', '/opt/xchem-fragalysis-2/maxwin/openbind-hippo/a71ev2a/openbind_a71ev2a_c1_scaffold_products.sdf', '/opt/xchem-fragalysis-2/maxwin/openbind-hippo/a71ev2a/cycle_01/bulkdock/openbind_a71ev2a_c1_scaffold_products.sdf', '/opt/xchem-fragalysis-2/maxwin/openbind-hippo/a71ev2a/cycle_01/bulkdock/openbind_a71ev2a_c1_scaffolds.sdf']

>  <fragmenstein_runtime>  (971) 
1.557488

$$$$
C9125-P22
     RDKit          3D

 13 13  0  0  0  0  0  0  0  0999 V2000
    7.8068   10.9052   25.1429 C   0  0  0  0  0  0  0  0  0  0  0  0
    8.9138   10.4968   24.2035 C   0  0  0  0  0  0  0  0  0  0  0  0
    9.7844   11.6161   23.6943 C   0  0  0  0  0  0  0  0  0  0  0  0
   10.8559   11.3045   23.1742 O   0  0  0  0  0  0  0  0  0  0  0  0
    9.2703   13.0546   23.7510 C   0  0  0  0  0  0  0  0  0  0  0  0
   10.3811   14.0153   23.7202 N   0  0  0  0  0  0  0  0  0  0  0  0
    9.9825   15.2719   24.3337 C   0  0  0  0  0  0  0  0  0  0  0  0
   10.9950   14.1249   22.3747 C   0  0  2  0  0  0  0  0  0  0  0  0
   12.5069   13.8714   22.4582 C   0  0  0  0  0  0  0  0  0  0  0  0
   13.1226   15.2505   22.5539 C   0  0  0  0  0  0  0  0  0  0  0  0
   12.2242   16.0749   21.8067 N   0  0  0  0  0  0  0  0  0  0  0  0
   10.9571   15.5270   21.7497 C   0  0  0  0  0  0  0  0  0  0  0  0
    9.9822   16.1134   21.3058 O   0  0  0  0  0  0  0  0  0  0  0  0
  1  2  1  0
  2  3  1  0
  3  4  2  0
  3  5  1  0
  5  6  1  0
  6  7  1  0
  8  6  1  1
  8  9  1  0
  9 10  1  0
 10 11  1  0
 11 12  1  0
 12 13  2  0
 12  8  1  0
M  END
>  <ref_pdb>  (972) 
A0528a

>  <subsites>  (972) 
1 - Active Site

>  <HIPPO Compound ID>  (972) 
13661

>  <energy_score>  (972) 
-28.839976

>  <fragmenstein_mode>  (972) 
expansion

>  <scratch_subdir>  (972) 
/opt/xchem-fragalysis-2/maxwin/BulkDock/SCRATCH/512217/C9125-P22

>  <smiles>  (972) 
CCC(=O)CN(C)[C@@H]1CCNC1=O

>  <alias>  (972) 
C9125-P22

>  <ref_mols>  (972) 
A1775a,A0528a

>  <inspiration_score>  (972) 
None

>  <tags>  (972) 
BulkDock Fragalysis export,fragmenstein_placed,openbind_a71ev2a_c1_knitwork_impure,openbind_a71ev2a_c1_scaffolds

>  <fragmenstein_outcome>  (972) 
acceptable

>  <fragmenstein_error>  (972) 


>  <distance_score>  (972) 
0.880134

>  <inchikey>  (972) 
XFTRGEJLGGFFLL-UHFFFAOYSA-N

>  <name>  (972) 
C9125-P22

>  <HIPPO Pose ID>  (972) 
450186

>  <Energy>  (972) 
62.745211

>  <exports>  (972) 
['/opt/xchem-fragalysis-2/maxwin/BulkDock/OUTPUTS/openbind_a71ev2a_c1_knitwork_impure_165VXJF.sdf', '/opt/xchem-fragalysis-2/maxwin/BulkDock/OUTPUTS/openbind_a71ev2a_c1_knitwork_impure_1B07QS4.sdf', '/opt/xchem-fragalysis-2/maxwin/BulkDock/OUTPUTS/openbind_a71ev2a_c1_knitwork_impure_1B07X5R.sdf', '/opt/xchem-fragalysis-2/maxwin/openbind-hippo/a71ev2a/openbind_a71ev2a_c1_scaffold_products.sdf', '/opt/xchem-fragalysis-2/maxwin/openbind-hippo/a71ev2a/cycle_01/bulkdock/openbind_a71ev2a_c1_scaffold_products.sdf', '/opt/xchem-fragalysis-2/maxwin/openbind-hippo/a71ev2a/cycle_01/bulkdock/openbind_a71ev2a_c1_scaffolds.sdf']

>  <fragmenstein_runtime>  (972) 
1.77983

$$$$
C6791-P465
     RDKit          3D

 12 13  0  0  0  0  0  0  0  0999 V2000
    9.3321   10.3090   23.8805 C   0  0  0  0  0  0  0  0  0  0  0  0
    9.5086   11.5503   23.2996 C   0  0  0  0  0  0  0  0  0  0  0  0
    8.7910   12.6139   23.8003 C   0  0  0  0  0  0  0  0  0  0  0  0
    8.8454   13.8895   23.2697 N   0  0  0  0  0  0  0  0  0  0  0  0
    9.1434   14.2031   21.8613 C   0  0  0  0  0  0  0  0  0  0  0  0
   10.6313   14.3833   21.5562 C   0  0  0  0  0  0  0  0  0  0  0  0
   11.4217   15.6321   22.6150 S   0  0  0  0  0  0  0  0  0  0  0  0
   10.7712   15.0857   24.2263 C   0  0  0  0  0  0  0  0  0  0  0  0
    9.2493   14.9300   24.2167 C   0  0  0  0  0  0  0  0  0  0  0  0
    7.9692   12.4209   24.8481 N   0  0  0  0  0  0  0  0  0  0  0  0
    7.8431   11.1748   25.3291 C   0  0  0  0  0  0  0  0  0  0  0  0
    8.4894   10.0882   24.8985 N   0  0  0  0  0  0  0  0  0  0  0  0
  1  2  2  0
  2  3  1  0
  3  4  1  0
  4  5  1  0
  5  6  1  0
  6  7  1  0
  7  8  1  0
  8  9  1  0
  3 10  2  0
 10 11  1  0
 11 12  2  0
 12  1  1  0
  9  4  1  0
M  END
>  <ref_pdb>  (973) 
A4786a

>  <subsites>  (973) 
1 - Active Site

>  <HIPPO Compound ID>  (973) 
2503

>  <energy_score>  (973) 
-11.797199

>  <fragmenstein_mode>  (973) 
expansion

>  <scratch_subdir>  (973) 
/opt/xchem-fragalysis-2/maxwin/BulkDock/SCRATCH/512217/C6791-P465

>  <smiles>  (973) 
c1cc(N2CCSCC2)ncn1

>  <alias>  (973) 
C6791-P465

>  <ref_mols>  (973) 
A4786a,A1068a

>  <inspiration_score>  (973) 
None

>  <tags>  (973) 
BulkDock Fragalysis export,fragmenstein_placed,openbind_a71ev2a_c1_knitwork_impure,openbind_a71ev2a_c1_scaffolds

>  <fragmenstein_outcome>  (973) 
acceptable

>  <fragmenstein_error>  (973) 


>  <distance_score>  (973) 
0.837899

>  <inchikey>  (973) 
ASMMGLVTGJDGEB-UHFFFAOYSA-N

>  <name>  (973) 
C6791-P465

>  <HIPPO Pose ID>  (973) 
450266

>  <Energy>  (973) 
8.954489

>  <exports>  (973) 
['/opt/xchem-fragalysis-2/maxwin/BulkDock/OUTPUTS/openbind_a71ev2a_c1_knitwork_impure_165VXJF.sdf', '/opt/xchem-fragalysis-2/maxwin/BulkDock/OUTPUTS/openbind_a71ev2a_c1_knitwork_impure_1B07QS4.sdf', '/opt/xchem-fragalysis-2/maxwin/BulkDock/OUTPUTS/openbind_a71ev2a_c1_knitwork_impure_1B07X5R.sdf', '/opt/xchem-fragalysis-2/maxwin/openbind-hippo/a71ev2a/openbind_a71ev2a_c1_scaffold_products.sdf', '/opt/xchem-fragalysis-2/maxwin/openbind-hippo/a71ev2a/cycle_01/bulkdock/openbind_a71ev2a_c1_scaffold_products.sdf', '/opt/xchem-fragalysis-2/maxwin/openbind-hippo/a71ev2a/cycle_01/bulkdock/openbind_a71ev2a_c1_scaffolds.sdf']

>  <fragmenstein_runtime>  (973) 
2.030885

$$$$
C6812-P465
     RDKit          3D

 11 12  0  0  0  0  0  0  0  0999 V2000
    9.3178   10.4857   23.8639 C   0  0  0  0  0  0  0  0  0  0  0  0
    9.6236   11.7353   23.3626 C   0  0  0  0  0  0  0  0  0  0  0  0
    8.9546   12.8263   23.8837 C   0  0  0  0  0  0  0  0  0  0  0  0
    9.2103   14.1337   23.4626 N   0  0  0  0  0  0  0  0  0  0  0  0
    8.7853   14.4501   22.0837 C   0  0  0  0  0  0  0  0  0  0  0  0
   10.0546   14.8811   21.3545 C   0  0  0  0  0  0  0  0  0  0  0  0
   10.8712   15.5173   22.4597 C   0  0  0  0  0  0  0  0  0  0  0  0
   10.5975   14.5965   23.6464 C   0  0  0  0  0  0  0  0  0  0  0  0
    8.0133   12.6501   24.8253 N   0  0  0  0  0  0  0  0  0  0  0  0
    7.7802   11.3946   25.2421 C   0  0  0  0  0  0  0  0  0  0  0  0
    8.3942   10.2842   24.8156 N   0  0  0  0  0  0  0  0  0  0  0  0
  1  2  2  0
  2  3  1  0
  3  4  1  0
  4  5  1  0
  5  6  1  0
  6  7  1  0
  7  8  1  0
  3  9  2  0
  9 10  1  0
 10 11  2  0
 11  1  1  0
  8  4  1  0
M  END
>  <ref_pdb>  (974) 
A4786a

>  <subsites>  (974) 
1 - Active Site

>  <HIPPO Compound ID>  (974) 
8131

>  <energy_score>  (974) 
-3.280404

>  <fragmenstein_mode>  (974) 
expansion

>  <scratch_subdir>  (974) 
/opt/xchem-fragalysis-2/maxwin/BulkDock/SCRATCH/512217/C6812-P465

>  <smiles>  (974) 
c1cc(N2CCCC2)ncn1

>  <alias>  (974) 
C6812-P465

>  <ref_mols>  (974) 
A4786a,A1068a

>  <inspiration_score>  (974) 
None

>  <tags>  (974) 
BulkDock Fragalysis export,fragmenstein_placed,openbind_a71ev2a_c1_knitwork_impure,openbind_a71ev2a_c1_scaffolds

>  <fragmenstein_outcome>  (974) 
acceptable

>  <fragmenstein_error>  (974) 


>  <distance_score>  (974) 
0.84744

>  <inchikey>  (974) 
VZVGFJIPTVRBAH-UHFFFAOYSA-N

>  <name>  (974) 
C6812-P465

>  <HIPPO Pose ID>  (974) 
450276

>  <Energy>  (974) 
-29.556891

>  <exports>  (974) 
['/opt/xchem-fragalysis-2/maxwin/BulkDock/OUTPUTS/openbind_a71ev2a_c1_knitwork_impure_165VXJF.sdf', '/opt/xchem-fragalysis-2/maxwin/BulkDock/OUTPUTS/openbind_a71ev2a_c1_knitwork_impure_1B07QS4.sdf', '/opt/xchem-fragalysis-2/maxwin/BulkDock/OUTPUTS/openbind_a71ev2a_c1_knitwork_impure_1B07X5R.sdf', '/opt/xchem-fragalysis-2/maxwin/openbind-hippo/a71ev2a/openbind_a71ev2a_c1_scaffold_products.sdf', '/opt/xchem-fragalysis-2/maxwin/openbind-hippo/a71ev2a/cycle_01/bulkdock/openbind_a71ev2a_c1_scaffold_products.sdf', '/opt/xchem-fragalysis-2/maxwin/openbind-hippo/a71ev2a/cycle_01/bulkdock/openbind_a71ev2a_c1_scaffolds.sdf']

>  <fragmenstein_runtime>  (974) 
1.685528

$$$$
C13035-P161
     RDKit          3D

 18 19  0  0  0  0  0  0  0  0999 V2000
    3.1183   12.6304   29.8506 C   0  0  0  0  0  0  0  0  0  0  0  0
    3.0434   11.2837   29.1234 C   0  0  1  0  0  0  0  0  0  0  0  0
    4.3218   10.4545   29.3100 C   0  0  0  0  0  0  0  0  0  0  0  0
    5.5031   11.1574   28.6438 C   0  0  0  0  0  0  0  0  0  0  0  0
    5.9848   12.1115   29.1170 O   0  0  0  0  0  0  0  0  0  0  0  0
    5.8089   10.4351   27.3040 N   0  0  0  0  0  0  0  0  0  0  0  0
    6.6538   10.7731   26.2891 C   0  0  0  0  0  0  0  0  0  0  0  0
    7.1799    9.8508   25.3429 C   0  0  0  0  0  0  0  0  0  0  0  0
    8.0942   10.5749   24.6384 C   0  0  0  0  0  0  0  0  0  0  0  0
    7.9199   11.8515   25.0386 N   0  0  0  0  0  0  0  0  0  0  0  0
    7.1581   12.0031   26.1151 N   0  0  0  0  0  0  0  0  0  0  0  0
    8.7792   12.8126   24.3885 C   0  0  0  0  0  0  0  0  0  0  0  0
    9.7401   11.8939   23.6056 C   0  0  0  0  0  0  0  0  0  0  0  0
    9.1753   10.4529   23.6556 C   0  0  0  0  0  0  0  0  0  0  0  0
    1.8194   10.5296   29.6097 C   0  0  0  0  0  0  0  0  0  0  0  0
    1.8610   10.2923   30.9355 F   0  0  0  0  0  0  0  0  0  0  0  0
    1.7012    9.3427   28.9735 F   0  0  0  0  0  0  0  0  0  0  0  0
    0.6969   11.2311   29.3443 F   0  0  0  0  0  0  0  0  0  0  0  0
  2  1  1  1
  2  3  1  0
  3  4  1  0
  4  5  2  0
  4  6  1  0
  6  7  1  0
  7  8  1  0
  8  9  2  0
  9 10  1  0
 10 11  1  0
 10 12  1  0
 12 13  1  0
 13 14  1  0
  2 15  1  0
 15 16  1  0
 15 17  1  0
 15 18  1  0
 11  7  2  0
 14  9  1  0
M  END
>  <ref_pdb>  (975) 
A3229a

>  <subsites>  (975) 
1 - Active Site

>  <HIPPO Compound ID>  (975) 
13681

>  <energy_score>  (975) 
-10.632606

>  <fragmenstein_mode>  (975) 
expansion

>  <scratch_subdir>  (975) 
/opt/xchem-fragalysis-2/maxwin/BulkDock/SCRATCH/512217/C13035-P161

>  <smiles>  (975) 
C[C@@H](CC(=O)Nc1cc2n(n1)CCC2)C(F)(F)F

>  <alias>  (975) 
C13035-P161

>  <ref_mols>  (975) 
A1445a,A3229a

>  <inspiration_score>  (975) 
None

>  <tags>  (975) 
BulkDock Fragalysis export,fragmenstein_placed,openbind_a71ev2a_c1_knitwork_impure,openbind_a71ev2a_c1_scaffolds

>  <fragmenstein_outcome>  (975) 
acceptable

>  <fragmenstein_error>  (975) 


>  <distance_score>  (975) 
0.977046

>  <inchikey>  (975) 
YQLMJTHUYFOGIH-UHFFFAOYSA-N

>  <name>  (975) 
C13035-P161

>  <HIPPO Pose ID>  (975) 
450737

>  <Energy>  (975) 
-8.217809

>  <exports>  (975) 
['/opt/xchem-fragalysis-2/maxwin/BulkDock/OUTPUTS/openbind_a71ev2a_c1_knitwork_impure_165VXJF.sdf', '/opt/xchem-fragalysis-2/maxwin/BulkDock/OUTPUTS/openbind_a71ev2a_c1_knitwork_impure_1B07QS4.sdf', '/opt/xchem-fragalysis-2/maxwin/BulkDock/OUTPUTS/openbind_a71ev2a_c1_knitwork_impure_1B07X5R.sdf', '/opt/xchem-fragalysis-2/maxwin/openbind-hippo/a71ev2a/openbind_a71ev2a_c1_scaffold_products.sdf', '/opt/xchem-fragalysis-2/maxwin/openbind-hippo/a71ev2a/cycle_01/bulkdock/openbind_a71ev2a_c1_scaffold_products.sdf', '/opt/xchem-fragalysis-2/maxwin/openbind-hippo/a71ev2a/cycle_01/bulkdock/openbind_a71ev2a_c1_scaffolds.sdf']

>  <fragmenstein_runtime>  (975) 
4.502665

$$$$
C7527-P441
     RDKit          3D

 15 15  0  0  0  0  0  0  0  0999 V2000
    5.9905   11.5936   25.0145 F   0  0  0  0  0  0  0  0  0  0  0  0
    6.2711   11.2557   26.2853 C   0  0  0  0  0  0  0  0  0  0  0  0
    5.4310   10.2680   26.6653 F   0  0  0  0  0  0  0  0  0  0  0  0
    7.5204   10.7560   26.2996 F   0  0  0  0  0  0  0  0  0  0  0  0
    6.0645   12.4476   27.2148 C   0  0  0  0  0  0  0  0  0  0  0  0
    6.9132   13.5819   27.0150 O   0  0  0  0  0  0  0  0  0  0  0  0
    6.8010   14.1749   25.7168 C   0  0  0  0  0  0  0  0  0  0  0  0
    7.9573   13.7131   24.8211 C   0  0  0  0  0  0  0  0  0  0  0  0
    7.9942   14.5309   23.6121 N   0  0  0  0  0  0  0  0  0  0  0  0
    9.1060   14.1917   22.7262 N   0  0  0  0  0  0  0  0  0  0  0  0
   10.3879   14.4305   23.4195 C   0  0  0  0  0  0  0  0  0  0  0  0
   11.5972   14.3319   22.5074 C   0  0  0  0  0  0  0  0  0  0  0  0
   11.4818   15.2828   21.3362 C   0  0  0  0  0  0  0  0  0  0  0  0
   10.1775   15.0376   20.6007 C   0  0  0  0  0  0  0  0  0  0  0  0
    8.9842   15.0907   21.5485 C   0  0  0  0  0  0  0  0  0  0  0  0
  1  2  1  0
  2  3  1  0
  2  4  1  0
  2  5  1  0
  5  6  1  0
  6  7  1  0
  7  8  1  0
  8  9  1  0
  9 10  1  0
 10 11  1  0
 11 12  1  0
 12 13  1  0
 13 14  1  0
 14 15  1  0
 15 10  1  0
M  END
>  <ref_pdb>  (976) 
A4708a

>  <subsites>  (976) 
1 - Active Site

>  <HIPPO Compound ID>  (976) 
34794

>  <energy_score>  (976) 
-21.988164

>  <fragmenstein_mode>  (976) 
expansion

>  <scratch_subdir>  (976) 
/opt/xchem-fragalysis-2/maxwin/BulkDock/SCRATCH/512217/C7527-P441

>  <smiles>  (976) 
FC(F)(F)COCCNN1CCCCC1

>  <alias>  (976) 
C7527-P441

>  <ref_mols>  (976) 
A1445a,A4708a

>  <inspiration_score>  (976) 
None

>  <tags>  (976) 
BulkDock Fragalysis export,fragmenstein_placed,openbind_a71ev2a_c1_knitwork_impure,openbind_a71ev2a_c1_scaffolds

>  <fragmenstein_outcome>  (976) 
acceptable

>  <fragmenstein_error>  (976) 


>  <distance_score>  (976) 
0.862294

>  <inchikey>  (976) 
VDTHFFGZXLSRON-UHFFFAOYSA-N

>  <name>  (976) 
C7527-P441

>  <HIPPO Pose ID>  (976) 
451455

>  <Energy>  (976) 
105.45666

>  <exports>  (976) 
['/opt/xchem-fragalysis-2/maxwin/BulkDock/OUTPUTS/openbind_a71ev2a_c1_knitwork_impure_165VXJF.sdf', '/opt/xchem-fragalysis-2/maxwin/BulkDock/OUTPUTS/openbind_a71ev2a_c1_knitwork_impure_1B07QS4.sdf', '/opt/xchem-fragalysis-2/maxwin/BulkDock/OUTPUTS/openbind_a71ev2a_c1_knitwork_impure_1B07X5R.sdf', '/opt/xchem-fragalysis-2/maxwin/openbind-hippo/a71ev2a/openbind_a71ev2a_c1_scaffold_products.sdf', '/opt/xchem-fragalysis-2/maxwin/openbind-hippo/a71ev2a/cycle_01/bulkdock/openbind_a71ev2a_c1_scaffold_products.sdf', '/opt/xchem-fragalysis-2/maxwin/openbind-hippo/a71ev2a/cycle_01/bulkdock/openbind_a71ev2a_c1_scaffolds.sdf']

>  <fragmenstein_runtime>  (976) 
4.360486

$$$$
C7529-P441
     RDKit          3D

 13 13  0  0  0  0  0  0  0  0999 V2000
    8.9193   14.3151   26.0689 O   0  0  0  0  0  0  0  0  0  0  0  0
    8.1482   13.8080   25.3383 C   0  0  0  0  0  0  0  0  0  0  0  0
    8.2122   13.5895   23.7749 N   0  0  0  0  0  0  0  0  0  0  0  0
    9.2292   13.8544   22.8714 N   0  0  0  0  0  0  0  0  0  0  0  0
   10.4734   14.2598   23.5372 C   0  0  0  0  0  0  0  0  0  0  0  0
   11.6113   14.3982   22.5427 C   0  0  0  0  0  0  0  0  0  0  0  0
   11.2722   15.3817   21.4401 C   0  0  0  0  0  0  0  0  0  0  0  0
    9.9340   15.0406   20.8035 C   0  0  0  0  0  0  0  0  0  0  0  0
    8.8307   14.8292   21.8420 C   0  0  0  0  0  0  0  0  0  0  0  0
    6.8562   13.1017   25.7907 C   0  0  0  0  0  0  0  0  0  0  0  0
    6.2255   13.7388   26.8102 F   0  0  0  0  0  0  0  0  0  0  0  0
    5.9623   12.9762   24.7729 F   0  0  0  0  0  0  0  0  0  0  0  0
    7.3030   11.4584   26.2846 Cl  0  0  0  0  0  0  0  0  0  0  0  0
  1  2  2  0
  2  3  1  0
  3  4  1  0
  4  5  1  0
  5  6  1  0
  6  7  1  0
  7  8  1  0
  8  9  1  0
  2 10  1  0
 10 11  1  0
 10 12  1  0
 10 13  1  0
  9  4  1  0
M  END
>  <ref_pdb>  (977) 
A4708a

>  <subsites>  (977) 
1 - Active Site

>  <HIPPO Compound ID>  (977) 
33363

>  <energy_score>  (977) 
-18.740754

>  <fragmenstein_mode>  (977) 
expansion

>  <scratch_subdir>  (977) 
/opt/xchem-fragalysis-2/maxwin/BulkDock/SCRATCH/512217/C7529-P441

>  <smiles>  (977) 
O=C(NN1CCCCC1)C(F)(F)Cl

>  <alias>  (977) 
C7529-P441

>  <ref_mols>  (977) 
A1445a,A4708a

>  <inspiration_score>  (977) 
None

>  <tags>  (977) 
BulkDock Fragalysis export,fragmenstein_placed,openbind_a71ev2a_c1_knitwork_impure,openbind_a71ev2a_c1_scaffolds

>  <fragmenstein_outcome>  (977) 
acceptable

>  <fragmenstein_error>  (977) 


>  <distance_score>  (977) 
0.904046

>  <inchikey>  (977) 
WGYSJYZCOQJSGJ-UHFFFAOYSA-N

>  <name>  (977) 
C7529-P441

>  <HIPPO Pose ID>  (977) 
451456

>  <Energy>  (977) 
127.316896

>  <exports>  (977) 
['/opt/xchem-fragalysis-2/maxwin/BulkDock/OUTPUTS/openbind_a71ev2a_c1_knitwork_impure_165VXJF.sdf', '/opt/xchem-fragalysis-2/maxwin/BulkDock/OUTPUTS/openbind_a71ev2a_c1_knitwork_impure_1B07QS4.sdf', '/opt/xchem-fragalysis-2/maxwin/BulkDock/OUTPUTS/openbind_a71ev2a_c1_knitwork_impure_1B07X5R.sdf', '/opt/xchem-fragalysis-2/maxwin/openbind-hippo/a71ev2a/openbind_a71ev2a_c1_scaffold_products.sdf', '/opt/xchem-fragalysis-2/maxwin/openbind-hippo/a71ev2a/cycle_01/bulkdock/openbind_a71ev2a_c1_scaffold_products.sdf', '/opt/xchem-fragalysis-2/maxwin/openbind-hippo/a71ev2a/cycle_01/bulkdock/openbind_a71ev2a_c1_scaffolds.sdf']

>  <fragmenstein_runtime>  (977) 
3.324565

$$$$
C4135-P200
     RDKit          3D

 21 23  0  0  0  0  0  0  0  0999 V2000
    8.0405   14.7489   21.3846 C   0  0  0  0  0  0  0  0  0  0  0  0
    6.8673   14.0836   22.1034 C   0  0  0  0  0  0  0  0  0  0  0  0
    6.3109   14.9299   23.2521 C   0  0  1  0  0  0  0  0  0  0  0  0
    4.9322   15.4072   23.0800 N   0  0  0  0  0  0  0  0  0  0  0  0
    3.7382   14.6253   22.7054 C   0  0  2  0  0  0  0  0  0  0  0  0
    3.0124   13.7354   23.7092 C   0  0  0  0  0  0  0  0  0  0  0  0
    3.4406   14.3215   21.2491 C   0  0  0  0  0  0  0  0  0  0  0  0
    2.7210   15.0774   20.4272 N   0  0  0  0  0  0  0  0  0  0  0  0
    2.5080   14.2735   19.3370 C   0  0  0  0  0  0  0  0  0  0  0  0
    3.1804   13.0884   19.4897 C   0  0  0  0  0  0  0  0  0  0  0  0
    3.3425   11.9050   18.6307 C   0  0  0  0  0  0  0  0  0  0  0  0
    3.7821   13.0990   20.7229 O   0  0  0  0  0  0  0  0  0  0  0  0
    6.8325   14.6475   24.7244 C   0  0  0  0  0  0  0  0  0  0  0  0
    8.3739   14.5093   24.7458 C   0  0  0  0  0  0  0  0  0  0  0  0
    8.5533   13.0385   24.6475 C   0  0  0  0  0  0  0  0  0  0  0  0
    9.5640   12.3349   24.0204 C   0  0  0  0  0  0  0  0  0  0  0  0
    9.4744   10.9519   24.0288 C   0  0  0  0  0  0  0  0  0  0  0  0
    8.4692   10.3228   24.7683 C   0  0  0  0  0  0  0  0  0  0  0  0
    7.4520   11.0439   25.3899 C   0  0  0  0  0  0  0  0  0  0  0  0
    7.4575   12.4058   25.2267 C   0  0  0  0  0  0  0  0  0  0  0  0
    6.3829   13.4010   25.5324 C   0  0  0  0  0  0  0  0  0  0  0  0
  1  2  1  0
  3  2  1  6
  3  4  1  0
  4  5  1  0
  5  6  1  1
  5  7  1  0
  7  8  2  0
  8  9  1  0
  9 10  2  0
 10 11  1  0
 10 12  1  0
  3 13  1  0
 13 14  1  0
 14 15  1  0
 15 16  2  0
 16 17  1  0
 17 18  2  0
 18 19  1  0
 19 20  2  0
 20 21  1  0
 12  7  1  0
 21 13  1  0
 20 15  1  0
M  END
>  <ref_pdb>  (978) 
A3623a

>  <subsites>  (978) 
1 - Active Site

>  <HIPPO Compound ID>  (978) 
5959

>  <energy_score>  (978) 
-14.361348

>  <fragmenstein_mode>  (978) 
expansion

>  <scratch_subdir>  (978) 
/opt/xchem-fragalysis-2/maxwin/BulkDock/SCRATCH/512217/C4135-P200

>  <smiles>  (978) 
CC[C@@H](N[C@H](C)c1ncc(C)o1)C1Cc2ccccc2C1

>  <alias>  (978) 
C4135-P200

>  <ref_mols>  (978) 
A3623a,A1778a

>  <inspiration_score>  (978) 
None

>  <tags>  (978) 
BulkDock Fragalysis export,fragmenstein_placed,openbind_a71ev2a_c1_knitwork_impure,openbind_a71ev2a_c1_scaffolds

>  <fragmenstein_outcome>  (978) 
acceptable

>  <fragmenstein_error>  (978) 


>  <distance_score>  (978) 
0.97599

>  <inchikey>  (978) 
ODTPIPWYWNRRDZ-UHFFFAOYSA-N

>  <name>  (978) 
C4135-P200

>  <HIPPO Pose ID>  (978) 
451737

>  <Energy>  (978) 
111.742712

>  <exports>  (978) 
['/opt/xchem-fragalysis-2/maxwin/BulkDock/OUTPUTS/openbind_a71ev2a_c1_knitwork_impure_165VXJF.sdf', '/opt/xchem-fragalysis-2/maxwin/BulkDock/OUTPUTS/openbind_a71ev2a_c1_knitwork_impure_1B07QS4.sdf', '/opt/xchem-fragalysis-2/maxwin/BulkDock/OUTPUTS/openbind_a71ev2a_c1_knitwork_impure_1B07X5R.sdf', '/opt/xchem-fragalysis-2/maxwin/openbind-hippo/a71ev2a/openbind_a71ev2a_c1_scaffold_products.sdf', '/opt/xchem-fragalysis-2/maxwin/openbind-hippo/a71ev2a/cycle_01/bulkdock/openbind_a71ev2a_c1_scaffold_products.sdf', '/opt/xchem-fragalysis-2/maxwin/openbind-hippo/a71ev2a/cycle_01/bulkdock/openbind_a71ev2a_c1_scaffolds.sdf']

>  <fragmenstein_runtime>  (978) 
4.922314

$$$$
C15024-P274
     RDKit          3D

 15 15  0  0  0  0  0  0  0  0999 V2000
   12.0024   15.6834   21.3846 C   0  0  0  0  0  0  0  0  0  0  0  0
   11.7271   14.7895   22.5824 C   0  0  0  0  0  0  0  0  0  0  0  0
   10.5892   15.3252   23.4222 C   0  0  0  0  0  0  0  0  0  0  0  0
    8.9642   14.9518   22.7629 S   0  0  0  0  0  0  0  0  0  0  0  0
    9.0417   14.5503   21.3800 O   0  0  0  0  0  0  0  0  0  0  0  0
    8.0352   15.9709   23.1930 O   0  0  0  0  0  0  0  0  0  0  0  0
    8.5970   13.5261   23.6048 N   0  0  0  0  0  0  0  0  0  0  0  0
    7.6780   13.6661   24.7500 C   0  0  2  0  0  0  0  0  0  0  0  0
    8.3352   14.4929   25.8572 C   0  0  0  0  0  0  0  0  0  0  0  0
    7.1785   12.3577   25.3256 C   0  0  0  0  0  0  0  0  0  0  0  0
    6.1019   12.4000   26.2275 C   0  0  0  0  0  0  0  0  0  0  0  0
    5.5852   11.2340   26.7665 C   0  0  0  0  0  0  0  0  0  0  0  0
    6.1476   10.0417   26.3683 C   0  0  0  0  0  0  0  0  0  0  0  0
    7.1903    9.9439   25.5183 N   0  0  0  0  0  0  0  0  0  0  0  0
    7.6857   11.1016   25.0157 C   0  0  0  0  0  0  0  0  0  0  0  0
  1  2  1  0
  2  3  1  0
  3  4  1  0
  4  5  2  0
  4  6  2  0
  4  7  1  0
  7  8  1  0
  8  9  1  1
  8 10  1  0
 10 11  2  0
 11 12  1  0
 12 13  2  0
 13 14  1  0
 14 15  2  0
 15 10  1  0
M  END
>  <ref_pdb>  (979) 
A4031a

>  <subsites>  (979) 
1 - Active Site

>  <HIPPO Compound ID>  (979) 
13045

>  <energy_score>  (979) 
-36.782693

>  <fragmenstein_mode>  (979) 
expansion

>  <scratch_subdir>  (979) 
/opt/xchem-fragalysis-2/maxwin/BulkDock/SCRATCH/512217/C15024-P274

>  <smiles>  (979) 
CCCS(=O)(=O)N[C@H](C)c1cccnc1

>  <alias>  (979) 
C15024-P274

>  <ref_mols>  (979) 
A4031a,A0719a

>  <inspiration_score>  (979) 
None

>  <tags>  (979) 
BulkDock Fragalysis export,fragmenstein_placed,openbind_a71ev2a_c1_knitwork_impure,openbind_a71ev2a_c1_scaffolds

>  <fragmenstein_outcome>  (979) 
acceptable

>  <fragmenstein_error>  (979) 


>  <distance_score>  (979) 
0.995348

>  <inchikey>  (979) 
BODYQHRQNOBDAC-UHFFFAOYSA-N

>  <name>  (979) 
C15024-P274

>  <HIPPO Pose ID>  (979) 
452154

>  <Energy>  (979) 
-55.815128

>  <exports>  (979) 
['/opt/xchem-fragalysis-2/maxwin/BulkDock/OUTPUTS/openbind_a71ev2a_c1_knitwork_impure_165VXJF.sdf', '/opt/xchem-fragalysis-2/maxwin/BulkDock/OUTPUTS/openbind_a71ev2a_c1_knitwork_impure_1B07QS4.sdf', '/opt/xchem-fragalysis-2/maxwin/BulkDock/OUTPUTS/openbind_a71ev2a_c1_knitwork_impure_1B07X5R.sdf', '/opt/xchem-fragalysis-2/maxwin/openbind-hippo/a71ev2a/openbind_a71ev2a_c1_scaffold_products.sdf', '/opt/xchem-fragalysis-2/maxwin/openbind-hippo/a71ev2a/cycle_01/bulkdock/openbind_a71ev2a_c1_scaffold_products.sdf', '/opt/xchem-fragalysis-2/maxwin/openbind-hippo/a71ev2a/cycle_01/bulkdock/openbind_a71ev2a_c1_scaffolds.sdf']

>  <fragmenstein_runtime>  (979) 
3.491935

$$$$
C15044-P274
     RDKit          3D

 15 15  0  0  0  0  0  0  0  0999 V2000
   10.6232   15.1316   19.6635 N   0  0  0  0  0  0  0  0  0  0  0  0
   11.1665   15.4572   20.6335 C   0  0  0  0  0  0  0  0  0  0  0  0
   11.8727   15.8697   21.8511 C   0  0  0  0  0  0  0  0  0  0  0  0
   11.8976   14.7714   22.9136 C   0  0  0  0  0  0  0  0  0  0  0  0
   10.5984   14.6292   23.6951 C   0  0  0  0  0  0  0  0  0  0  0  0
    9.5165   14.2454   22.7901 N   0  0  0  0  0  0  0  0  0  0  0  0
    8.0606   13.7763   23.5000 S   0  0  0  0  0  0  0  0  0  0  0  0
    7.8768   14.5430   24.7125 O   0  0  0  0  0  0  0  0  0  0  0  0
    7.0774   13.6743   22.4442 O   0  0  0  0  0  0  0  0  0  0  0  0
    8.3474   12.1039   24.0124 C   0  0  0  0  0  0  0  0  0  0  0  0
    7.4961   11.5324   24.9427 C   0  0  0  0  0  0  0  0  0  0  0  0
    7.5957   10.1656   25.1093 C   0  0  0  0  0  0  0  0  0  0  0  0
    8.5222    9.4623   24.3423 C   0  0  0  0  0  0  0  0  0  0  0  0
    9.3477   10.1368   23.4625 C   0  0  0  0  0  0  0  0  0  0  0  0
    9.3034   11.4646   23.2894 N   0  0  0  0  0  0  0  0  0  0  0  0
  1  2  3  0
  2  3  1  0
  3  4  1  0
  4  5  1  0
  5  6  1  0
  6  7  1  0
  7  8  2  0
  7  9  2  0
  7 10  1  0
 10 11  2  0
 11 12  1  0
 12 13  2  0
 13 14  1  0
 14 15  2  0
 15 10  1  0
M  END
>  <ref_pdb>  (980) 
A4031a

>  <subsites>  (980) 
1 - Active Site

>  <HIPPO Compound ID>  (980) 
82666

>  <energy_score>  (980) 
-26.8369

>  <fragmenstein_mode>  (980) 
expansion

>  <scratch_subdir>  (980) 
/opt/xchem-fragalysis-2/maxwin/BulkDock/SCRATCH/512217/C15044-P274

>  <smiles>  (980) 
N#CCCCNS(=O)(=O)c1ccccn1

>  <alias>  (980) 
C15044-P274

>  <ref_mols>  (980) 
A4031a,A0719a

>  <inspiration_score>  (980) 
None

>  <tags>  (980) 
BulkDock Fragalysis export,fragmenstein_placed,openbind_a71ev2a_c1_knitwork_impure,openbind_a71ev2a_c1_scaffolds

>  <fragmenstein_outcome>  (980) 
acceptable

>  <fragmenstein_error>  (980) 


>  <distance_score>  (980) 
0.969291

>  <inchikey>  (980) 
GWGHKZDVFZVLKE-UHFFFAOYSA-N

>  <name>  (980) 
C15044-P274

>  <HIPPO Pose ID>  (980) 
452171

>  <Energy>  (980) 
16.531443

>  <exports>  (980) 
['/opt/xchem-fragalysis-2/maxwin/BulkDock/OUTPUTS/openbind_a71ev2a_c1_knitwork_impure_165VXJF.sdf', '/opt/xchem-fragalysis-2/maxwin/BulkDock/OUTPUTS/openbind_a71ev2a_c1_knitwork_impure_1B07QS4.sdf', '/opt/xchem-fragalysis-2/maxwin/BulkDock/OUTPUTS/openbind_a71ev2a_c1_knitwork_impure_1B07X5R.sdf', '/opt/xchem-fragalysis-2/maxwin/openbind-hippo/a71ev2a/openbind_a71ev2a_c1_scaffold_products.sdf', '/opt/xchem-fragalysis-2/maxwin/openbind-hippo/a71ev2a/cycle_01/bulkdock/openbind_a71ev2a_c1_scaffold_products.sdf', '/opt/xchem-fragalysis-2/maxwin/openbind-hippo/a71ev2a/cycle_01/bulkdock/openbind_a71ev2a_c1_scaffolds.sdf']

>  <fragmenstein_runtime>  (980) 
6.852934

$$$$
C15048-P274
     RDKit          3D

 16 16  0  0  0  0  0  0  0  0999 V2000
    6.8157   14.9973   27.3166 C   0  0  0  0  0  0  0  0  0  0  0  0
    8.0039   14.8119   26.3853 C   0  0  0  0  0  0  0  0  0  0  0  0
    7.8036   13.9354   25.1233 C   0  0  2  0  0  0  0  0  0  0  0  0
    6.8238   14.6136   24.2449 N   0  0  0  0  0  0  0  0  0  0  0  0
    7.1909   14.5369   22.6042 S   0  0  0  0  0  0  0  0  0  0  0  0
    8.3227   15.4059   22.4047 O   0  0  0  0  0  0  0  0  0  0  0  0
    7.1951   13.1628   22.1736 O   0  0  0  0  0  0  0  0  0  0  0  0
    5.8123   15.2768   22.0148 N   0  0  0  0  0  0  0  0  0  0  0  0
    5.6290   16.6723   22.4136 C   0  0  0  0  0  0  0  0  0  0  0  0
    4.5708   14.4856   22.0588 C   0  0  0  0  0  0  0  0  0  0  0  0
    7.4743   12.4668   25.3309 C   0  0  0  0  0  0  0  0  0  0  0  0
    8.2370   11.5093   24.6466 C   0  0  0  0  0  0  0  0  0  0  0  0
    7.9306   10.1631   24.7764 C   0  0  0  0  0  0  0  0  0  0  0  0
    6.9374    9.6956   25.5598 N   0  0  0  0  0  0  0  0  0  0  0  0
    6.1884   10.6237   26.1858 C   0  0  0  0  0  0  0  0  0  0  0  0
    6.3998   11.9945   26.0892 C   0  0  0  0  0  0  0  0  0  0  0  0
  1  2  1  0
  3  2  1  1
  3  4  1  0
  4  5  1  0
  5  6  2  0
  5  7  2  0
  5  8  1  0
  8  9  1  0
  8 10  1  0
  3 11  1  0
 11 12  2  0
 12 13  1  0
 13 14  2  0
 14 15  1  0
 15 16  2  0
 16 11  1  0
M  END
>  <ref_pdb>  (981) 
A4031a

>  <subsites>  (981) 
1 - Active Site

>  <HIPPO Compound ID>  (981) 
13636

>  <energy_score>  (981) 
-31.976839

>  <fragmenstein_mode>  (981) 
expansion

>  <scratch_subdir>  (981) 
/opt/xchem-fragalysis-2/maxwin/BulkDock/SCRATCH/512217/C15048-P274

>  <smiles>  (981) 
CC[C@H](NS(=O)(=O)N(C)C)c1ccncc1

>  <alias>  (981) 
C15048-P274

>  <ref_mols>  (981) 
A4031a,A0719a

>  <inspiration_score>  (981) 
None

>  <tags>  (981) 
BulkDock Fragalysis export,fragmenstein_placed,openbind_a71ev2a_c1_knitwork_impure,openbind_a71ev2a_c1_scaffolds

>  <fragmenstein_outcome>  (981) 
acceptable

>  <fragmenstein_error>  (981) 


>  <distance_score>  (981) 
0.817597

>  <inchikey>  (981) 
OORLBSFUVZGRGR-UHFFFAOYSA-N

>  <name>  (981) 
C15048-P274

>  <HIPPO Pose ID>  (981) 
452174

>  <Energy>  (981) 
-170.340483

>  <exports>  (981) 
['/opt/xchem-fragalysis-2/maxwin/BulkDock/OUTPUTS/openbind_a71ev2a_c1_knitwork_impure_165VXJF.sdf', '/opt/xchem-fragalysis-2/maxwin/BulkDock/OUTPUTS/openbind_a71ev2a_c1_knitwork_impure_1B07QS4.sdf', '/opt/xchem-fragalysis-2/maxwin/BulkDock/OUTPUTS/openbind_a71ev2a_c1_knitwork_impure_1B07X5R.sdf', '/opt/xchem-fragalysis-2/maxwin/openbind-hippo/a71ev2a/openbind_a71ev2a_c1_scaffold_products.sdf', '/opt/xchem-fragalysis-2/maxwin/openbind-hippo/a71ev2a/cycle_01/bulkdock/openbind_a71ev2a_c1_scaffold_products.sdf', '/opt/xchem-fragalysis-2/maxwin/openbind-hippo/a71ev2a/cycle_01/bulkdock/openbind_a71ev2a_c1_scaffolds.sdf']

>  <fragmenstein_runtime>  (981) 
9.683101

$$$$
C15065-P274
     RDKit          3D

 13 13  0  0  0  0  0  0  0  0999 V2000
   11.6492   14.8973   22.8482 C   0  0  0  0  0  0  0  0  0  0  0  0
   10.5694   15.0903   23.7540 O   0  0  0  0  0  0  0  0  0  0  0  0
    9.3028   14.7607   23.1694 C   0  0  0  0  0  0  0  0  0  0  0  0
    8.8604   13.3704   23.6370 C   0  0  2  0  0  0  0  0  0  0  0  0
    7.9789   12.7945   22.6769 O   0  0  0  0  0  0  0  0  0  0  0  0
    8.1430   13.4201   24.9836 C   0  0  0  0  0  0  0  0  0  0  0  0
    8.1534   14.4022   25.7229 O   0  0  0  0  0  0  0  0  0  0  0  0
    7.3902   12.2287   25.4540 C   0  0  0  0  0  0  0  0  0  0  0  0
    6.3208   12.4242   26.3310 C   0  0  0  0  0  0  0  0  0  0  0  0
    5.6173   11.3292   26.8164 C   0  0  0  0  0  0  0  0  0  0  0  0
    6.0052   10.0683   26.4021 C   0  0  0  0  0  0  0  0  0  0  0  0
    7.0406    9.8347   25.5672 N   0  0  0  0  0  0  0  0  0  0  0  0
    7.7171   10.9213   25.1173 C   0  0  0  0  0  0  0  0  0  0  0  0
  1  2  1  0
  2  3  1  0
  3  4  1  0
  4  5  1  6
  4  6  1  0
  6  7  2  0
  6  8  1  0
  8  9  2  0
  9 10  1  0
 10 11  2  0
 11 12  1  0
 12 13  2  0
 13  8  1  0
M  END
>  <ref_pdb>  (982) 
A4031a

>  <subsites>  (982) 
1 - Active Site

>  <HIPPO Compound ID>  (982) 
10690

>  <energy_score>  (982) 
-15.970405

>  <fragmenstein_mode>  (982) 
expansion

>  <scratch_subdir>  (982) 
/opt/xchem-fragalysis-2/maxwin/BulkDock/SCRATCH/512217/C15065-P274

>  <smiles>  (982) 
COC[C@H](O)C(=O)c1cccnc1

>  <alias>  (982) 
C15065-P274

>  <ref_mols>  (982) 
A4031a,A0719a

>  <inspiration_score>  (982) 
None

>  <tags>  (982) 
BulkDock Fragalysis export,fragmenstein_placed,openbind_a71ev2a_c1_knitwork_impure,openbind_a71ev2a_c1_scaffolds

>  <fragmenstein_outcome>  (982) 
acceptable

>  <fragmenstein_error>  (982) 


>  <distance_score>  (982) 
0.90796

>  <inchikey>  (982) 
FCBYOGTWIGJNNJ-UHFFFAOYSA-N

>  <name>  (982) 
C15065-P274

>  <HIPPO Pose ID>  (982) 
452189

>  <Energy>  (982) 
86.293455

>  <exports>  (982) 
['/opt/xchem-fragalysis-2/maxwin/BulkDock/OUTPUTS/openbind_a71ev2a_c1_knitwork_impure_165VXJF.sdf', '/opt/xchem-fragalysis-2/maxwin/BulkDock/OUTPUTS/openbind_a71ev2a_c1_knitwork_impure_1B07QS4.sdf', '/opt/xchem-fragalysis-2/maxwin/BulkDock/OUTPUTS/openbind_a71ev2a_c1_knitwork_impure_1B07X5R.sdf', '/opt/xchem-fragalysis-2/maxwin/openbind-hippo/a71ev2a/openbind_a71ev2a_c1_scaffold_products.sdf', '/opt/xchem-fragalysis-2/maxwin/openbind-hippo/a71ev2a/cycle_01/bulkdock/openbind_a71ev2a_c1_scaffold_products.sdf', '/opt/xchem-fragalysis-2/maxwin/openbind-hippo/a71ev2a/cycle_01/bulkdock/openbind_a71ev2a_c1_scaffolds.sdf']

>  <fragmenstein_runtime>  (982) 
4.93034

$$$$
C15067-P274
     RDKit          3D

 15 15  0  0  0  0  0  0  0  0999 V2000
   11.3106   15.3070   20.4733 C   0  0  0  0  0  0  0  0  0  0  0  0
   11.7176   15.8176   21.8520 C   0  0  0  0  0  0  0  0  0  0  0  0
   11.7708   14.7272   22.9240 C   0  0  0  0  0  0  0  0  0  0  0  0
   10.5375   14.5019   23.6137 O   0  0  0  0  0  0  0  0  0  0  0  0
    9.5033   14.0853   22.7475 C   0  0  0  0  0  0  0  0  0  0  0  0
    8.3793   13.2850   23.3730 C   0  0  0  0  0  0  0  0  0  0  0  0
    7.4947   12.8180   22.6456 O   0  0  0  0  0  0  0  0  0  0  0  0
    8.3155   13.1980   24.8874 C   0  0  1  0  0  0  0  0  0  0  0  0
    7.8342   14.4649   25.3474 O   0  0  0  0  0  0  0  0  0  0  0  0
    7.4458   12.0781   25.4213 C   0  0  0  0  0  0  0  0  0  0  0  0
    6.4563   12.3061   26.3880 C   0  0  0  0  0  0  0  0  0  0  0  0
    5.7048   11.2507   26.8853 C   0  0  0  0  0  0  0  0  0  0  0  0
    5.9722    9.9839   26.4092 C   0  0  0  0  0  0  0  0  0  0  0  0
    6.9265    9.7068   25.4989 N   0  0  0  0  0  0  0  0  0  0  0  0
    7.6376   10.7559   25.0209 C   0  0  0  0  0  0  0  0  0  0  0  0
  1  2  1  0
  2  3  1  0
  3  4  1  0
  4  5  1  0
  5  6  1  0
  6  7  2  0
  6  8  1  0
  8  9  1  1
  8 10  1  0
 10 11  2  0
 11 12  1  0
 12 13  2  0
 13 14  1  0
 14 15  2  0
 15 10  1  0
M  END
>  <ref_pdb>  (983) 
A4031a

>  <subsites>  (983) 
1 - Active Site

>  <HIPPO Compound ID>  (983) 
2123

>  <energy_score>  (983) 
-17.579004

>  <fragmenstein_mode>  (983) 
expansion

>  <scratch_subdir>  (983) 
/opt/xchem-fragalysis-2/maxwin/BulkDock/SCRATCH/512217/C15067-P274

>  <smiles>  (983) 
CCCOCC(=O)[C@@H](O)c1cccnc1

>  <alias>  (983) 
C15067-P274

>  <ref_mols>  (983) 
A4031a,A0719a

>  <inspiration_score>  (983) 
None

>  <tags>  (983) 
BulkDock Fragalysis export,fragmenstein_placed,openbind_a71ev2a_c1_knitwork_impure,openbind_a71ev2a_c1_scaffolds

>  <fragmenstein_outcome>  (983) 
acceptable

>  <fragmenstein_error>  (983) 


>  <distance_score>  (983) 
0.897279

>  <inchikey>  (983) 
WUBOLPOQHKSMNV-UHFFFAOYSA-N

>  <name>  (983) 
C15067-P274

>  <HIPPO Pose ID>  (983) 
452190

>  <Energy>  (983) 
78.540433

>  <exports>  (983) 
['/opt/xchem-fragalysis-2/maxwin/BulkDock/OUTPUTS/openbind_a71ev2a_c1_knitwork_impure_165VXJF.sdf', '/opt/xchem-fragalysis-2/maxwin/BulkDock/OUTPUTS/openbind_a71ev2a_c1_knitwork_impure_1B07QS4.sdf', '/opt/xchem-fragalysis-2/maxwin/BulkDock/OUTPUTS/openbind_a71ev2a_c1_knitwork_impure_1B07X5R.sdf', '/opt/xchem-fragalysis-2/maxwin/openbind-hippo/a71ev2a/openbind_a71ev2a_c1_scaffold_products.sdf', '/opt/xchem-fragalysis-2/maxwin/openbind-hippo/a71ev2a/cycle_01/bulkdock/openbind_a71ev2a_c1_scaffold_products.sdf', '/opt/xchem-fragalysis-2/maxwin/openbind-hippo/a71ev2a/cycle_01/bulkdock/openbind_a71ev2a_c1_scaffolds.sdf']

>  <fragmenstein_runtime>  (983) 
3.056446

$$$$
C8155-P274
     RDKit          3D

 16 16  0  0  0  0  0  0  0  0999 V2000
   10.5908   15.3768   18.7062 C   0  0  0  0  0  0  0  0  0  0  0  0
   10.8261   15.7323   20.1317 C   0  0  0  0  0  0  0  0  0  0  0  0
   11.5430   14.9425   20.9374 C   0  0  0  0  0  0  0  0  0  0  0  0
   12.0328   15.3308   22.2279 C   0  0  0  0  0  0  0  0  0  0  0  0
   11.4306   15.3113   23.4231 C   0  0  0  0  0  0  0  0  0  0  0  0
   10.0576   14.9606   23.8776 C   0  0  0  0  0  0  0  0  0  0  0  0
    9.2995   14.3105   22.8289 N   0  0  0  0  0  0  0  0  0  0  0  0
    7.8727   13.6148   23.2858 S   0  0  0  0  0  0  0  0  0  0  0  0
    7.3701   14.3430   24.4233 O   0  0  0  0  0  0  0  0  0  0  0  0
    7.1098   13.3964   22.0821 O   0  0  0  0  0  0  0  0  0  0  0  0
    8.3483   12.1133   23.8048 N   0  0  0  0  0  0  0  0  0  0  0  0
    7.8280   11.6400   25.0798 C   0  0  0  0  0  0  0  0  0  0  0  0
    7.5591   10.1546   25.0254 C   0  0  0  0  0  0  0  0  0  0  0  0
    8.4248    9.3674   24.0572 C   0  0  0  0  0  0  0  0  0  0  0  0
    9.6438   10.0421   23.4756 C   0  0  0  0  0  0  0  0  0  0  0  0
    9.6395   11.5604   23.4119 C   0  0  0  0  0  0  0  0  0  0  0  0
  1  2  1  0
  2  3  2  3
  3  4  1  0
  4  5  2  3
  5  6  1  0
  6  7  1  0
  7  8  1  0
  8  9  2  0
  8 10  2  0
  8 11  1  0
 11 12  1  0
 12 13  1  0
 13 14  1  0
 14 15  1  0
 15 16  1  0
 16 11  1  0
M  END
>  <ref_pdb>  (984) 
A4031a

>  <subsites>  (984) 
1 - Active Site

>  <HIPPO Compound ID>  (984) 
86181

>  <energy_score>  (984) 
-24.703721

>  <fragmenstein_mode>  (984) 
expansion

>  <scratch_subdir>  (984) 
/opt/xchem-fragalysis-2/maxwin/BulkDock/SCRATCH/512217/C8155-P274

>  <smiles>  (984) 
CC=CC=CCNS(=O)(=O)N1CCCCC1

>  <alias>  (984) 
C8155-P274

>  <ref_mols>  (984) 
A4031a,A0719a

>  <inspiration_score>  (984) 
None

>  <tags>  (984) 
BulkDock Fragalysis export,fragmenstein_placed,openbind_a71ev2a_c1_knitwork_impure,openbind_a71ev2a_c1_scaffolds

>  <fragmenstein_outcome>  (984) 
acceptable

>  <fragmenstein_error>  (984) 


>  <distance_score>  (984) 
0.942229

>  <inchikey>  (984) 
POMAHRVANROYCT-UHFFFAOYSA-N

>  <name>  (984) 
C8155-P274

>  <HIPPO Pose ID>  (984) 
452212

>  <Energy>  (984) 
-173.202607

>  <exports>  (984) 
['/opt/xchem-fragalysis-2/maxwin/BulkDock/OUTPUTS/openbind_a71ev2a_c1_knitwork_impure_165VXJF.sdf', '/opt/xchem-fragalysis-2/maxwin/BulkDock/OUTPUTS/openbind_a71ev2a_c1_knitwork_impure_1B07QS4.sdf', '/opt/xchem-fragalysis-2/maxwin/BulkDock/OUTPUTS/openbind_a71ev2a_c1_knitwork_impure_1B07X5R.sdf', '/opt/xchem-fragalysis-2/maxwin/openbind-hippo/a71ev2a/openbind_a71ev2a_c1_scaffold_products.sdf', '/opt/xchem-fragalysis-2/maxwin/openbind-hippo/a71ev2a/cycle_01/bulkdock/openbind_a71ev2a_c1_scaffold_products.sdf', '/opt/xchem-fragalysis-2/maxwin/openbind-hippo/a71ev2a/cycle_01/bulkdock/openbind_a71ev2a_c1_scaffolds.sdf']

>  <fragmenstein_runtime>  (984) 
4.890949

$$$$
C10627-P252
     RDKit          3D

 13 13  0  0  0  0  0  0  0  0999 V2000
    8.8215   14.8272   25.9338 C   0  0  0  0  0  0  0  0  0  0  0  0
    8.3701   14.4150   24.5396 C   0  0  0  0  0  0  0  0  0  0  0  0
    6.8599   14.5874   24.2846 C   0  0  1  0  0  0  0  0  0  0  0  0
    6.3530   15.9427   24.7760 C   0  0  0  0  0  0  0  0  0  0  0  0
    6.5726   14.2850   22.8023 C   0  0  0  0  0  0  0  0  0  0  0  0
    7.0218   13.2599   22.2690 O   0  0  0  0  0  0  0  0  0  0  0  0
    5.6829   15.2015   21.9995 C   0  0  0  0  0  0  0  0  0  0  0  0
    3.9495   14.8100   22.3090 S   0  0  0  0  0  0  0  0  0  0  0  0
    3.4646   14.3677   20.7087 C   0  0  0  0  0  0  0  0  0  0  0  0
    2.5888   15.0686   20.0179 N   0  0  0  0  0  0  0  0  0  0  0  0
    2.4886   14.3846   18.8312 C   0  0  0  0  0  0  0  0  0  0  0  0
    3.3464   13.3152   18.8334 C   0  0  0  0  0  0  0  0  0  0  0  0
    3.9802   13.2917   20.0379 O   0  0  0  0  0  0  0  0  0  0  0  0
  1  2  1  0
  2  3  1  0
  3  4  1  6
  3  5  1  0
  5  6  2  0
  5  7  1  0
  7  8  1  0
  8  9  1  0
  9 10  2  0
 10 11  1  0
 11 12  2  0
 12 13  1  0
 13  9  1  0
M  END
>  <ref_pdb>  (985) 
A3975a

>  <subsites>  (985) 
1 - Active Site

>  <HIPPO Compound ID>  (985) 
5404

>  <energy_score>  (985) 
-24.837037

>  <fragmenstein_mode>  (985) 
expansion

>  <scratch_subdir>  (985) 
/opt/xchem-fragalysis-2/maxwin/BulkDock/SCRATCH/512217/C10627-P252

>  <smiles>  (985) 
CC[C@@H](C)C(=O)CSc1ncco1

>  <alias>  (985) 
C10627-P252

>  <ref_mols>  (985) 
A3623a,A3975a

>  <inspiration_score>  (985) 
None

>  <tags>  (985) 
BulkDock Fragalysis export,fragmenstein_placed,openbind_a71ev2a_c1_knitwork_impure,openbind_a71ev2a_c1_scaffolds

>  <fragmenstein_outcome>  (985) 
acceptable

>  <fragmenstein_error>  (985) 


>  <distance_score>  (985) 
0.74501

>  <inchikey>  (985) 
JPQPMWWMNLJLFA-UHFFFAOYSA-N

>  <name>  (985) 
C10627-P252

>  <HIPPO Pose ID>  (985) 
452373

>  <Energy>  (985) 
9.822316

>  <exports>  (985) 
['/opt/xchem-fragalysis-2/maxwin/BulkDock/OUTPUTS/openbind_a71ev2a_c1_knitwork_impure_165VXJF.sdf', '/opt/xchem-fragalysis-2/maxwin/BulkDock/OUTPUTS/openbind_a71ev2a_c1_knitwork_impure_1B07QS4.sdf', '/opt/xchem-fragalysis-2/maxwin/BulkDock/OUTPUTS/openbind_a71ev2a_c1_knitwork_impure_1B07X5R.sdf', '/opt/xchem-fragalysis-2/maxwin/openbind-hippo/a71ev2a/openbind_a71ev2a_c1_scaffold_products.sdf', '/opt/xchem-fragalysis-2/maxwin/openbind-hippo/a71ev2a/cycle_01/bulkdock/openbind_a71ev2a_c1_scaffold_products.sdf', '/opt/xchem-fragalysis-2/maxwin/openbind-hippo/a71ev2a/cycle_01/bulkdock/openbind_a71ev2a_c1_scaffolds.sdf']

>  <fragmenstein_runtime>  (985) 
1.383199

$$$$
C8161-P228
     RDKit          3D

 17 17  0  0  0  0  0  0  0  0999 V2000
    9.3853   14.5897   26.0107 C   0  0  0  0  0  0  0  0  0  0  0  0
   10.0368   13.7557   24.9024 C   0  0  0  0  0  0  0  0  0  0  0  0
    9.4139   13.9337   23.4752 C   0  0  1  0  0  0  0  0  0  0  0  0
   10.1499   13.0272   22.4909 C   0  0  0  0  0  0  0  0  0  0  0  0
    7.8716   13.4976   23.5534 C   0  0  1  0  0  0  0  0  0  0  0  0
    7.2259   13.4899   22.2663 O   0  0  0  0  0  0  0  0  0  0  0  0
    7.5725   12.1115   24.2069 C   0  0  0  0  0  0  0  0  0  0  0  0
    8.0847   11.0347   23.4184 O   0  0  0  0  0  0  0  0  0  0  0  0
    8.6031    9.9062   24.0994 C   0  0  0  0  0  0  0  0  0  0  0  0
    8.9590    8.8004   23.1245 C   0  0  0  0  0  0  0  0  0  0  0  0
    9.8811   10.2926   24.7754 C   0  0  0  0  0  0  0  0  0  0  0  0
    9.5781   15.3688   23.0422 N   0  0  0  0  0  0  0  0  0  0  0  0
   10.8129   16.0589   23.4551 C   0  0  0  0  0  0  0  0  0  0  0  0
   12.0304   15.7554   22.5989 C   0  0  0  0  0  0  0  0  0  0  0  0
   11.7855   16.2323   21.1874 C   0  0  0  0  0  0  0  0  0  0  0  0
   10.4983   15.6549   20.6320 C   0  0  0  0  0  0  0  0  0  0  0  0
    9.3182   15.7225   21.6231 C   0  0  0  0  0  0  0  0  0  0  0  0
  1  2  1  0
  2  3  1  0
  3  4  1  6
  3  5  1  0
  5  6  1  6
  5  7  1  0
  7  8  1  0
  8  9  1  0
  9 10  1  0
  9 11  1  0
  3 12  1  0
 12 13  1  0
 13 14  1  0
 14 15  1  0
 15 16  1  0
 16 17  1  0
 17 12  1  0
M  END
>  <ref_pdb>  (986) 
A3868a

>  <subsites>  (986) 
1 - Active Site

>  <HIPPO Compound ID>  (986) 
82412

>  <energy_score>  (986) 
-34.605312

>  <fragmenstein_mode>  (986) 
expansion

>  <scratch_subdir>  (986) 
/opt/xchem-fragalysis-2/maxwin/BulkDock/SCRATCH/512217/C8161-P228

>  <smiles>  (986) 
CC[C@@](C)([C@@H](O)COC(C)C)N1CCCCC1

>  <alias>  (986) 
C8161-P228

>  <ref_mols>  (986) 
A3868a,A0719a

>  <inspiration_score>  (986) 
None

>  <tags>  (986) 
BulkDock Fragalysis export,fragmenstein_placed,openbind_a71ev2a_c1_knitwork_impure,openbind_a71ev2a_c1_scaffolds

>  <fragmenstein_outcome>  (986) 
acceptable

>  <fragmenstein_error>  (986) 


>  <distance_score>  (986) 
0.921386

>  <inchikey>  (986) 
UYZNFIDKOOLBFF-UHFFFAOYSA-N

>  <name>  (986) 
C8161-P228

>  <HIPPO Pose ID>  (986) 
452704

>  <Energy>  (986) 
97.75086

>  <exports>  (986) 
['/opt/xchem-fragalysis-2/maxwin/BulkDock/OUTPUTS/openbind_a71ev2a_c1_knitwork_impure_165VXJF.sdf', '/opt/xchem-fragalysis-2/maxwin/BulkDock/OUTPUTS/openbind_a71ev2a_c1_knitwork_impure_1B07QS4.sdf', '/opt/xchem-fragalysis-2/maxwin/BulkDock/OUTPUTS/openbind_a71ev2a_c1_knitwork_impure_1B07X5R.sdf', '/opt/xchem-fragalysis-2/maxwin/openbind-hippo/a71ev2a/openbind_a71ev2a_c1_scaffold_products.sdf', '/opt/xchem-fragalysis-2/maxwin/openbind-hippo/a71ev2a/cycle_01/bulkdock/openbind_a71ev2a_c1_scaffold_products.sdf', '/opt/xchem-fragalysis-2/maxwin/openbind-hippo/a71ev2a/cycle_01/bulkdock/openbind_a71ev2a_c1_scaffolds.sdf']

>  <fragmenstein_runtime>  (986) 
8.881363

$$$$
C7073-P183
     RDKit          3D

 19 19  0  0  0  0  0  0  0  0999 V2000
   11.7179   14.9279   21.1717 C   0  0  0  0  0  0  0  0  0  0  0  0
   10.4816   15.5092   20.4919 C   0  0  2  0  0  0  0  0  0  0  0  0
    9.1361   15.4038   21.1759 C   0  0  0  0  0  0  0  0  0  0  0  0
    8.3529   16.2460   21.0062 O   0  0  0  0  0  0  0  0  0  0  0  0
    9.0933   14.1774   22.0956 N   0  0  0  0  0  0  0  0  0  0  0  0
    8.1225   13.7786   23.0687 C   0  0  0  0  0  0  0  0  0  0  0  0
    8.6821   12.9456   24.2392 C   0  0  0  0  0  0  0  0  0  0  0  0
    9.9531   13.6402   24.7839 C   0  0  0  0  0  0  0  0  0  0  0  0
    9.1441   11.5723   23.7055 C   0  0  0  0  0  0  0  0  0  0  0  0
    7.6380   12.8680   25.4440 C   0  0  0  0  0  0  0  0  0  0  0  0
    7.1795   11.4528   25.8269 C   0  0  0  0  0  0  0  0  0  0  0  0
    6.2084   11.4394   27.0078 C   0  0  0  0  0  0  0  0  0  0  0  0
    5.0627   12.3104   26.8056 N   0  0  0  0  0  0  0  0  0  0  0  0
    5.4899   13.6887   26.5714 C   0  0  0  0  0  0  0  0  0  0  0  0
    6.4347   13.8321   25.3772 C   0  0  0  0  0  0  0  0  0  0  0  0
   10.4119   15.2523   19.0097 C   0  0  0  0  0  0  0  0  0  0  0  0
   10.8287   14.0110   18.6882 F   0  0  0  0  0  0  0  0  0  0  0  0
   11.2171   16.0904   18.3381 F   0  0  0  0  0  0  0  0  0  0  0  0
    9.1861   15.4493   18.4984 F   0  0  0  0  0  0  0  0  0  0  0  0
  2  1  1  1
  2  3  1  0
  3  4  2  0
  3  5  1  0
  5  6  1  0
  6  7  1  0
  7  8  1  0
  7  9  1  0
  7 10  1  0
 10 11  1  0
 11 12  1  0
 12 13  1  0
 13 14  1  0
 14 15  1  0
  2 16  1  0
 16 17  1  0
 16 18  1  0
 16 19  1  0
 15 10  1  0
M  END
>  <ref_pdb>  (987) 
A3436a

>  <subsites>  (987) 
1 - Active Site

>  <HIPPO Compound ID>  (987) 
91439

>  <energy_score>  (987) 
-16.616756

>  <fragmenstein_mode>  (987) 
expansion

>  <scratch_subdir>  (987) 
/opt/xchem-fragalysis-2/maxwin/BulkDock/SCRATCH/512217/C7073-P183

>  <smiles>  (987) 
C[C@H](C(=O)NCC(C)(C)C1CCNCC1)C(F)(F)F

>  <alias>  (987) 
C7073-P183

>  <ref_mols>  (987) 
A3436a,A4320a

>  <inspiration_score>  (987) 
None

>  <tags>  (987) 
BulkDock Fragalysis export,fragmenstein_placed,openbind_a71ev2a_c1_knitwork_impure,openbind_a71ev2a_c1_scaffolds

>  <fragmenstein_outcome>  (987) 
acceptable

>  <fragmenstein_error>  (987) 


>  <distance_score>  (987) 
0.996512

>  <inchikey>  (987) 
TYDVZPFYBLQFDI-UHFFFAOYSA-N

>  <name>  (987) 
C7073-P183

>  <HIPPO Pose ID>  (987) 
452782

>  <Energy>  (987) 
20.141885

>  <exports>  (987) 
['/opt/xchem-fragalysis-2/maxwin/BulkDock/OUTPUTS/openbind_a71ev2a_c1_knitwork_impure_165VXJF.sdf', '/opt/xchem-fragalysis-2/maxwin/BulkDock/OUTPUTS/openbind_a71ev2a_c1_knitwork_impure_1B07QS4.sdf', '/opt/xchem-fragalysis-2/maxwin/BulkDock/OUTPUTS/openbind_a71ev2a_c1_knitwork_impure_1B07X5R.sdf', '/opt/xchem-fragalysis-2/maxwin/openbind-hippo/a71ev2a/openbind_a71ev2a_c1_scaffold_products.sdf', '/opt/xchem-fragalysis-2/maxwin/openbind-hippo/a71ev2a/cycle_01/bulkdock/openbind_a71ev2a_c1_scaffold_products.sdf', '/opt/xchem-fragalysis-2/maxwin/openbind-hippo/a71ev2a/cycle_01/bulkdock/openbind_a71ev2a_c1_scaffolds.sdf']

>  <fragmenstein_runtime>  (987) 
10.553684

$$$$
C994-P158
     RDKit          3D

 24 27  0  0  0  0  0  0  0  0999 V2000
   19.4327   12.7643    3.4799 O   0  0  0  0  0  0  0  0  0  0  0  0
   19.6360   13.7554    2.8972 C   0  0  0  0  0  0  0  0  0  0  0  0
   18.5177   14.5480    2.2039 C   0  0  0  0  0  0  0  0  0  0  0  0
   18.4429   16.0018    2.6108 C   0  0  0  0  0  0  0  0  0  0  0  0
   17.9982   16.3595    3.8835 C   0  0  0  0  0  0  0  0  0  0  0  0
   17.9982   17.6989    4.2853 C   0  0  0  0  0  0  0  0  0  0  0  0
   18.4161   18.7394    3.4345 C   0  0  0  0  0  0  0  0  0  0  0  0
   18.4140   20.2504    3.9202 C   0  0  0  0  0  0  0  0  0  0  0  0
   19.7098   21.0960    3.7584 C   0  0  0  0  0  0  0  0  0  0  0  0
   18.7996   22.3169    3.5165 C   0  0  0  0  0  0  0  0  0  0  0  0
   17.7174   21.3273    3.0398 C   0  0  0  0  0  0  0  0  0  0  0  0
   18.8274   18.3526    2.1448 C   0  0  0  0  0  0  0  0  0  0  0  0
   18.8409   17.0149    1.7345 C   0  0  0  0  0  0  0  0  0  0  0  0
   20.9673   14.4796    2.5846 N   0  0  0  0  0  0  0  0  0  0  0  0
   22.3231   14.0878    2.8401 C   0  0  0  0  0  0  0  0  0  0  0  0
   22.8663   13.5400    1.5725 C   0  0  0  0  0  0  0  0  0  0  0  0
   22.3202   13.6265    0.3713 N   0  0  0  0  0  0  0  0  0  0  0  0
   23.1362   12.9804   -0.5237 N   0  0  0  0  0  0  0  0  0  0  0  0
   24.1745   12.5261    0.1402 C   0  0  0  0  0  0  0  0  0  0  0  0
   24.0510   12.8698    1.4591 N   0  0  0  0  0  0  0  0  0  0  0  0
   25.0708   12.6601    2.4626 C   0  0  0  0  0  0  0  0  0  0  0  0
   26.1709   11.7004    2.0017 C   0  0  0  0  0  0  0  0  0  0  0  0
   26.5496   11.9350    0.5370 C   0  0  0  0  0  0  0  0  0  0  0  0
   25.3336   11.7584   -0.3743 C   0  0  0  0  0  0  0  0  0  0  0  0
  1  2  2  0
  2  3  1  0
  3  4  1  0
  4  5  2  0
  5  6  1  0
  6  7  2  0
  7  8  1  0
  8  9  1  0
  9 10  1  0
 10 11  1  0
  7 12  1  0
 12 13  2  0
  2 14  1  0
 14 15  1  0
 15 16  1  0
 16 17  2  0
 17 18  1  0
 18 19  2  0
 19 20  1  0
 20 21  1  0
 21 22  1  0
 22 23  1  0
 23 24  1  0
 13  4  1  0
 20 16  1  0
 11  8  1  0
 24 19  1  0
M  END
>  <ref_pdb>  (988) 
A3222a

>  <subsites>  (988) 
1 - Active Site,6 - A0486/A/147/1

>  <HIPPO Compound ID>  (988) 
17086

>  <energy_score>  (988) 
-25.103978

>  <fragmenstein_mode>  (988) 
expansion

>  <scratch_subdir>  (988) 
/opt/xchem-fragalysis-2/maxwin/BulkDock/SCRATCH/512217/C994-P158

>  <smiles>  (988) 
O=C(Cc1ccc(C2CCC2)cc1)NCc1nnc2n1CCCC2

>  <alias>  (988) 
C994-P158

>  <ref_mols>  (988) 
A0239a,A3222a

>  <inspiration_score>  (988) 
None

>  <tags>  (988) 
BulkDock Fragalysis export,fragmenstein_placed,openbind_a71ev2a_c1_knitwork_impure,openbind_a71ev2a_c1_scaffolds

>  <fragmenstein_outcome>  (988) 
acceptable

>  <fragmenstein_error>  (988) 


>  <distance_score>  (988) 
0.483632

>  <inchikey>  (988) 
MFVZOPZOZQGRRS-UHFFFAOYSA-N

>  <name>  (988) 
C994-P158

>  <HIPPO Pose ID>  (988) 
452834

>  <Energy>  (988) 
38.11385

>  <exports>  (988) 
['/opt/xchem-fragalysis-2/maxwin/BulkDock/OUTPUTS/openbind_a71ev2a_c1_knitwork_impure_165VXJF.sdf', '/opt/xchem-fragalysis-2/maxwin/BulkDock/OUTPUTS/openbind_a71ev2a_c1_knitwork_impure_1B07QS4.sdf', '/opt/xchem-fragalysis-2/maxwin/BulkDock/OUTPUTS/openbind_a71ev2a_c1_knitwork_impure_1B07X5R.sdf', '/opt/xchem-fragalysis-2/maxwin/openbind-hippo/a71ev2a/openbind_a71ev2a_c1_scaffold_products.sdf', '/opt/xchem-fragalysis-2/maxwin/openbind-hippo/a71ev2a/cycle_01/bulkdock/openbind_a71ev2a_c1_scaffold_products.sdf', '/opt/xchem-fragalysis-2/maxwin/openbind-hippo/a71ev2a/cycle_01/bulkdock/openbind_a71ev2a_c1_scaffolds.sdf']

>  <fragmenstein_runtime>  (988) 
16.217509

$$$$
C9394-P277
     RDKit          3D

 13 13  0  0  0  0  0  0  0  0999 V2000
    5.9125   10.8081   27.1953 C   0  0  0  0  0  0  0  0  0  0  0  0
    6.1417    9.9179   26.2212 C   0  0  0  0  0  0  0  0  0  0  0  0
    7.3538    9.7998   25.3503 C   0  0  0  0  0  0  0  0  0  0  0  0
    8.3504   10.7731   25.6345 O   0  0  0  0  0  0  0  0  0  0  0  0
    8.0609   12.0576   25.0730 C   0  0  0  0  0  0  0  0  0  0  0  0
    9.3657   12.6156   24.5102 C   0  0  1  0  0  0  0  0  0  0  0  0
    9.9012   11.6078   23.6376 O   0  0  0  0  0  0  0  0  0  0  0  0
    9.0765   13.9074   23.7267 C   0  0  0  0  0  0  0  0  0  0  0  0
   10.2357   14.7454   23.3960 N   0  0  0  0  0  0  0  0  0  0  0  0
   11.3357   14.0191   22.7588 C   0  0  0  0  0  0  0  0  0  0  0  0
   12.1586   15.1217   22.1130 C   0  0  0  0  0  0  0  0  0  0  0  0
   11.2007   16.2813   21.9187 C   0  0  0  0  0  0  0  0  0  0  0  0
    9.8607   15.7661   22.4037 C   0  0  0  0  0  0  0  0  0  0  0  0
  1  2  2  0
  2  3  1  0
  3  4  1  0
  4  5  1  0
  5  6  1  0
  6  7  1  6
  6  8  1  0
  8  9  1  0
  9 10  1  0
 10 11  1  0
 11 12  1  0
 12 13  1  0
 13  9  1  0
M  END
>  <ref_pdb>  (989) 
A4032b

>  <subsites>  (989) 
1 - Active Site

>  <HIPPO Compound ID>  (989) 
9566

>  <energy_score>  (989) 
-70.159193

>  <fragmenstein_mode>  (989) 
expansion

>  <scratch_subdir>  (989) 
/opt/xchem-fragalysis-2/maxwin/BulkDock/SCRATCH/512217/C9394-P277

>  <smiles>  (989) 
C=CCOC[C@@H](O)CN1CCCC1

>  <alias>  (989) 
C9394-P277

>  <ref_mols>  (989) 
A0719a,A4032b

>  <inspiration_score>  (989) 
None

>  <tags>  (989) 
BulkDock Fragalysis export,fragmenstein_placed,openbind_a71ev2a_c1_knitwork_impure,openbind_a71ev2a_c1_scaffolds

>  <fragmenstein_outcome>  (989) 
acceptable

>  <fragmenstein_error>  (989) 


>  <distance_score>  (989) 
0.953871

>  <inchikey>  (989) 
WQQLBSLYPKFCKZ-UHFFFAOYSA-N

>  <name>  (989) 
C9394-P277

>  <HIPPO Pose ID>  (989) 
453272

>  <Energy>  (989) 
55.166344

>  <exports>  (989) 
['/opt/xchem-fragalysis-2/maxwin/BulkDock/OUTPUTS/openbind_a71ev2a_c1_knitwork_impure_165VXJF.sdf', '/opt/xchem-fragalysis-2/maxwin/BulkDock/OUTPUTS/openbind_a71ev2a_c1_knitwork_impure_1B07QS4.sdf', '/opt/xchem-fragalysis-2/maxwin/BulkDock/OUTPUTS/openbind_a71ev2a_c1_knitwork_impure_1B07X5R.sdf', '/opt/xchem-fragalysis-2/maxwin/openbind-hippo/a71ev2a/openbind_a71ev2a_c1_scaffold_products.sdf', '/opt/xchem-fragalysis-2/maxwin/openbind-hippo/a71ev2a/cycle_01/bulkdock/openbind_a71ev2a_c1_scaffold_products.sdf', '/opt/xchem-fragalysis-2/maxwin/openbind-hippo/a71ev2a/cycle_01/bulkdock/openbind_a71ev2a_c1_scaffolds.sdf']

>  <fragmenstein_runtime>  (989) 
2.304346

$$$$
C7646-P437
     RDKit          3D

 13 14  0  0  0  0  0  0  0  0999 V2000
    5.8946   15.8594   22.2713 N   0  0  0  0  0  0  0  0  0  0  0  0
    7.1288   14.7887   22.6730 S   0  0  0  0  0  0  0  0  0  0  0  0
    8.3585   15.4953   22.4044 O   0  0  0  0  0  0  0  0  0  0  0  0
    6.7771   13.5650   21.9888 O   0  0  0  0  0  0  0  0  0  0  0  0
    6.8284   14.7173   24.4365 C   0  0  0  0  0  0  0  0  0  0  0  0
    8.0236   14.2565   25.2613 C   0  0  0  0  0  0  0  0  0  0  0  0
    8.0398   12.7460   25.4871 C   0  0  0  0  0  0  0  0  0  0  0  0
    8.1271   12.0231   24.2291 N   0  0  0  0  0  0  0  0  0  0  0  0
    7.6395   10.6352   24.3489 C   0  0  0  0  0  0  0  0  0  0  0  0
    8.8541    9.8431   24.6758 C   0  0  1  0  0  0  0  0  0  0  0  0
    9.8065    9.3473   23.6274 C   0  0  0  0  0  0  0  0  0  0  0  0
   10.0322   10.6693   24.3126 C   0  0  1  0  0  0  0  0  0  0  0  0
    9.5209   11.9522   23.7336 C   0  0  0  0  0  0  0  0  0  0  0  0
  1  2  1  0
  2  3  2  0
  2  4  2  0
  2  5  1  0
  5  6  1  0
  6  7  1  0
  7  8  1  0
  8  9  1  0
 10  9  1  6
 10 11  1  0
 12 11  1  6
 12 13  1  0
 13  8  1  0
 12 10  1  0
M  END
>  <ref_pdb>  (990) 
A4701a

>  <subsites>  (990) 
1 - Active Site

>  <HIPPO Compound ID>  (990) 
15184

>  <energy_score>  (990) 
-37.600067

>  <fragmenstein_mode>  (990) 
expansion

>  <scratch_subdir>  (990) 
/opt/xchem-fragalysis-2/maxwin/BulkDock/SCRATCH/512217/C7646-P437

>  <smiles>  (990) 
NS(=O)(=O)CCCN1C[C@H]2C[C@H]2C1

>  <alias>  (990) 
C7646-P437

>  <ref_mols>  (990) 
A0719a,A4701a

>  <inspiration_score>  (990) 
None

>  <tags>  (990) 
BulkDock Fragalysis export,fragmenstein_placed,openbind_a71ev2a_c1_knitwork_impure,openbind_a71ev2a_c1_scaffolds

>  <fragmenstein_outcome>  (990) 
acceptable

>  <fragmenstein_error>  (990) 


>  <distance_score>  (990) 
0.916007

>  <inchikey>  (990) 
UDMHBJKMQVXFEZ-UHFFFAOYSA-N

>  <name>  (990) 
C7646-P437

>  <HIPPO Pose ID>  (990) 
454134

>  <Energy>  (990) 
-65.949091

>  <exports>  (990) 
['/opt/xchem-fragalysis-2/maxwin/BulkDock/OUTPUTS/openbind_a71ev2a_c1_knitwork_impure_165VXJF.sdf', '/opt/xchem-fragalysis-2/maxwin/BulkDock/OUTPUTS/openbind_a71ev2a_c1_knitwork_impure_1B07QS4.sdf', '/opt/xchem-fragalysis-2/maxwin/BulkDock/OUTPUTS/openbind_a71ev2a_c1_knitwork_impure_1B07X5R.sdf', '/opt/xchem-fragalysis-2/maxwin/openbind-hippo/a71ev2a/openbind_a71ev2a_c1_scaffold_products.sdf', '/opt/xchem-fragalysis-2/maxwin/openbind-hippo/a71ev2a/cycle_01/bulkdock/openbind_a71ev2a_c1_scaffold_products.sdf', '/opt/xchem-fragalysis-2/maxwin/openbind-hippo/a71ev2a/cycle_01/bulkdock/openbind_a71ev2a_c1_scaffolds.sdf']

>  <fragmenstein_runtime>  (990) 
4.24192

$$$$
C4791-P317
     RDKit          3D

  9 10  0  0  0  0  0  0  0  0999 V2000
    8.4553   14.6310   24.7975 C   0  0  0  0  0  0  0  0  0  0  0  0
    8.8348   13.4325   24.3166 C   0  0  0  0  0  0  0  0  0  0  0  0
    8.4916   11.9715   24.6457 C   0  0  0  0  0  0  0  0  0  0  0  0
    7.5114   11.5447   25.5550 C   0  0  0  0  0  0  0  0  0  0  0  0
    7.5630   10.1720   25.4907 C   0  0  0  0  0  0  0  0  0  0  0  0
    8.5488    9.8689   24.5911 N   0  0  0  0  0  0  0  0  0  0  0  0
    9.1157   10.9567   24.0533 N   0  0  0  0  0  0  0  0  0  0  0  0
    9.7204   14.0304   23.2462 C   0  0  0  0  0  0  0  0  0  0  0  0
    9.3459   15.3988   23.8449 C   0  0  0  0  0  0  0  0  0  0  0  0
  1  2  2  0
  2  3  1  0
  3  4  1  0
  4  5  2  0
  5  6  1  0
  6  7  1  0
  2  8  1  0
  8  9  1  0
  9  1  1  0
  7  3  2  0
M  END
>  <ref_pdb>  (991) 
A4343b

>  <subsites>  (991) 
1 - Active Site

>  <HIPPO Compound ID>  (991) 
6035

>  <energy_score>  (991) 
-15.220533

>  <fragmenstein_mode>  (991) 
expansion

>  <scratch_subdir>  (991) 
/opt/xchem-fragalysis-2/maxwin/BulkDock/SCRATCH/512217/C4791-P317

>  <smiles>  (991) 
C1=C(c2cc[nH]n2)CC1

>  <alias>  (991) 
C4791-P317

>  <ref_mols>  (991) 
A0556a,A4343b

>  <inspiration_score>  (991) 
None

>  <tags>  (991) 
BulkDock Fragalysis export,fragmenstein_placed,openbind_a71ev2a_c1_knitwork_impure,openbind_a71ev2a_c1_scaffolds

>  <fragmenstein_outcome>  (991) 
acceptable

>  <fragmenstein_error>  (991) 


>  <distance_score>  (991) 
0.953409

>  <inchikey>  (991) 
SXQLOIUOKJFCTE-UHFFFAOYSA-N

>  <name>  (991) 
C4791-P317

>  <HIPPO Pose ID>  (991) 
454296

>  <Energy>  (991) 
3.59037

>  <exports>  (991) 
['/opt/xchem-fragalysis-2/maxwin/BulkDock/OUTPUTS/openbind_a71ev2a_c1_knitwork_impure_165VXJF.sdf', '/opt/xchem-fragalysis-2/maxwin/BulkDock/OUTPUTS/openbind_a71ev2a_c1_knitwork_impure_1B07QS4.sdf', '/opt/xchem-fragalysis-2/maxwin/BulkDock/OUTPUTS/openbind_a71ev2a_c1_knitwork_impure_1B07X5R.sdf', '/opt/xchem-fragalysis-2/maxwin/openbind-hippo/a71ev2a/openbind_a71ev2a_c1_scaffold_products.sdf', '/opt/xchem-fragalysis-2/maxwin/openbind-hippo/a71ev2a/cycle_01/bulkdock/openbind_a71ev2a_c1_scaffold_products.sdf', '/opt/xchem-fragalysis-2/maxwin/openbind-hippo/a71ev2a/cycle_01/bulkdock/openbind_a71ev2a_c1_scaffolds.sdf']

>  <fragmenstein_runtime>  (991) 
0.87983

$$$$
C4142-P136
     RDKit          3D

 21 23  0  0  0  0  0  0  0  0999 V2000
    7.9948   19.5984   19.3562 C   0  0  0  0  0  0  0  0  0  0  0  0
    8.9186   18.4357   19.2852 C   0  0  0  0  0  0  0  0  0  0  0  0
    9.1462   17.7241   20.5888 C   0  0  0  0  0  0  0  0  0  0  0  0
   10.0516   16.5931   20.3333 C   0  0  0  0  0  0  0  0  0  0  0  0
   10.1937   15.8754   19.2404 N   0  0  0  0  0  0  0  0  0  0  0  0
   11.1386   14.9547   19.5848 C   0  0  0  0  0  0  0  0  0  0  0  0
   11.4711   15.1063   20.9085 C   0  0  0  0  0  0  0  0  0  0  0  0
   12.2594   14.3323   21.8823 C   0  0  0  0  0  0  0  0  0  0  0  0
   11.7952   14.4184   23.2916 N   0  0  0  0  0  0  0  0  0  0  0  0
   10.3374   14.2480   23.5175 C   0  0  0  0  0  0  0  0  0  0  0  0
    9.6290   13.1024   22.8004 C   0  0  0  0  0  0  0  0  0  0  0  0
    9.6863   11.7661   23.5164 C   0  0  0  0  0  0  0  0  0  0  0  0
    8.5969   11.5761   24.5514 C   0  0  0  0  0  0  0  0  0  0  0  0
    8.0657   10.2807   24.6831 C   0  0  0  0  0  0  0  0  0  0  0  0
    7.0152   10.0188   25.5588 C   0  0  0  0  0  0  0  0  0  0  0  0
    6.4721   11.0390   26.3225 C   0  0  0  0  0  0  0  0  0  0  0  0
    7.0065   12.3197   26.2305 C   0  0  0  0  0  0  0  0  0  0  0  0
    8.0918   12.6025   25.3751 C   0  0  0  0  0  0  0  0  0  0  0  0
    8.6126   14.0241   25.3863 C   0  0  0  0  0  0  0  0  0  0  0  0
   10.0943   14.1983   25.0358 C   0  0  0  0  0  0  0  0  0  0  0  0
   10.8355   16.2153   21.3690 O   0  0  0  0  0  0  0  0  0  0  0  0
  1  2  1  0
  2  3  1  0
  3  4  1  0
  4  5  2  0
  5  6  1  0
  6  7  2  0
  7  8  1  0
  8  9  1  0
  9 10  1  0
 10 11  1  0
 11 12  1  0
 12 13  1  0
 13 14  2  0
 14 15  1  0
 15 16  2  0
 16 17  1  0
 17 18  2  0
 18 19  1  0
 19 20  1  0
  7 21  1  0
 21  4  1  0
 20 10  1  0
 18 13  1  0
M  END
>  <ref_pdb>  (992) 
A2846a

>  <subsites>  (992) 
1 - Active Site

>  <HIPPO Compound ID>  (992) 
3119

>  <energy_score>  (992) 
-35.144257

>  <fragmenstein_mode>  (992) 
expansion

>  <scratch_subdir>  (992) 
/opt/xchem-fragalysis-2/maxwin/BulkDock/SCRATCH/512217/C4142-P136

>  <smiles>  (992) 
CCCc1ncc(CNC2CCc3ccccc3CC2)o1

>  <alias>  (992) 
C4142-P136

>  <ref_mols>  (992) 
A2846a,A1778a

>  <inspiration_score>  (992) 
None

>  <tags>  (992) 
BulkDock Fragalysis export,fragmenstein_placed,openbind_a71ev2a_c1_knitwork_impure,openbind_a71ev2a_c1_scaffolds

>  <fragmenstein_outcome>  (992) 
acceptable

>  <fragmenstein_error>  (992) 


>  <distance_score>  (992) 
0.720389

>  <inchikey>  (992) 
FGJMRRSNHUUVNO-UHFFFAOYSA-N

>  <name>  (992) 
C4142-P136

>  <HIPPO Pose ID>  (992) 
454312

>  <Energy>  (992) 
46.994224

>  <exports>  (992) 
['/opt/xchem-fragalysis-2/maxwin/BulkDock/OUTPUTS/openbind_a71ev2a_c1_knitwork_impure_165VXJF.sdf', '/opt/xchem-fragalysis-2/maxwin/BulkDock/OUTPUTS/openbind_a71ev2a_c1_knitwork_impure_1B07QS4.sdf', '/opt/xchem-fragalysis-2/maxwin/BulkDock/OUTPUTS/openbind_a71ev2a_c1_knitwork_impure_1B07X5R.sdf', '/opt/xchem-fragalysis-2/maxwin/openbind-hippo/a71ev2a/openbind_a71ev2a_c1_scaffold_products.sdf', '/opt/xchem-fragalysis-2/maxwin/openbind-hippo/a71ev2a/cycle_01/bulkdock/openbind_a71ev2a_c1_scaffold_products.sdf', '/opt/xchem-fragalysis-2/maxwin/openbind-hippo/a71ev2a/cycle_01/bulkdock/openbind_a71ev2a_c1_scaffolds.sdf']

>  <fragmenstein_runtime>  (992) 
3.171132

$$$$
C7479-P173
     RDKit          3D

 23 24  0  0  0  0  0  0  0  0999 V2000
    3.5808   12.3625   18.2329 C   0  0  0  0  0  0  0  0  0  0  0  0
    3.4091   12.6086   19.7314 C   0  0  0  0  0  0  0  0  0  0  0  0
    2.3429   11.6742   20.3013 C   0  0  0  0  0  0  0  0  0  0  0  0
    3.0713   14.0218   20.0113 C   0  0  0  0  0  0  0  0  0  0  0  0
    2.1239   14.5735   19.1976 O   0  0  0  0  0  0  0  0  0  0  0  0
    2.0292   15.8519   19.6166 C   0  0  0  0  0  0  0  0  0  0  0  0
    2.8105   16.1702   20.6267 N   0  0  0  0  0  0  0  0  0  0  0  0
    3.4516   14.9803   20.9359 C   0  0  0  0  0  0  0  0  0  0  0  0
    4.3524   14.8767   22.1288 C   0  0  0  0  0  0  0  0  0  0  0  0
    5.6264   15.5074   21.8215 N   0  0  0  0  0  0  0  0  0  0  0  0
    7.0316   14.7144   22.2508 S   0  0  0  0  0  0  0  0  0  0  0  0
    6.7843   13.3422   21.8363 O   0  0  0  0  0  0  0  0  0  0  0  0
    8.0179   15.4165   21.4567 O   0  0  0  0  0  0  0  0  0  0  0  0
    6.9893   14.9505   23.7640 N   0  0  0  0  0  0  0  0  0  0  0  0
    8.3390   14.6178   24.4259 S   0  0  2  0  0  0  0  0  0  0  0  0
    8.1775   15.1658   26.1132 C   0  0  0  0  0  0  0  0  0  0  0  0
    9.6125   15.1460   23.9823 O   0  0  0  0  0  0  0  0  0  0  0  0
    8.5771   12.8313   24.6255 C   0  0  0  0  0  0  0  0  0  0  0  0
    9.4078   12.2526   23.4864 C   0  0  0  0  0  0  0  0  0  0  0  0
    9.5358   10.7338   23.4503 C   0  0  0  0  0  0  0  0  0  0  0  0
    8.4322    9.9048   24.0789 C   0  0  0  0  0  0  0  0  0  0  0  0
    7.5159   10.5912   25.0757 C   0  0  0  0  0  0  0  0  0  0  0  0
    7.2799   12.0722   24.8457 C   0  0  0  0  0  0  0  0  0  0  0  0
  1  2  1  0
  2  3  1  0
  2  4  1  0
  4  5  1  0
  5  6  1  0
  6  7  2  0
  7  8  1  0
  8  9  1  0
  9 10  1  0
 10 11  1  0
 11 12  2  0
 11 13  2  0
 11 14  1  0
 14 15  2  0
 15 16  1  1
 15 17  2  0
 15 18  1  0
 18 19  1  0
 19 20  1  0
 20 21  1  0
 21 22  1  0
 22 23  1  0
  8  4  2  0
 23 18  1  0
M  END
>  <ref_pdb>  (993) 
A3587a

>  <subsites>  (993) 
1 - Active Site

>  <HIPPO Compound ID>  (993) 
10549

>  <energy_score>  (993) 
-235.30746

>  <fragmenstein_mode>  (993) 
expansion

>  <scratch_subdir>  (993) 
/opt/xchem-fragalysis-2/maxwin/BulkDock/SCRATCH/512217/C7479-P173

>  <smiles>  (993) 
CC(C)c1ocnc1CNS(=O)(=O)N=[S@](C)(=O)C1CCCCC1

>  <alias>  (993) 
C7479-P173

>  <ref_mols>  (993) 
A3623a,A3587a

>  <inspiration_score>  (993) 
None

>  <tags>  (993) 
BulkDock Fragalysis export,fragmenstein_placed,openbind_a71ev2a_c1_knitwork_impure,openbind_a71ev2a_c1_scaffolds

>  <fragmenstein_outcome>  (993) 
acceptable

>  <fragmenstein_error>  (993) 


>  <distance_score>  (993) 
0.89834

>  <inchikey>  (993) 
QLCVGBHOPHCWJD-UHFFFAOYSA-N

>  <name>  (993) 
C7479-P173

>  <HIPPO Pose ID>  (993) 
454623

>  <Energy>  (993) 
-238.861728

>  <exports>  (993) 
['/opt/xchem-fragalysis-2/maxwin/BulkDock/OUTPUTS/openbind_a71ev2a_c1_knitwork_impure_165VXJF.sdf', '/opt/xchem-fragalysis-2/maxwin/BulkDock/OUTPUTS/openbind_a71ev2a_c1_knitwork_impure_1B07QS4.sdf', '/opt/xchem-fragalysis-2/maxwin/BulkDock/OUTPUTS/openbind_a71ev2a_c1_knitwork_impure_1B07X5R.sdf', '/opt/xchem-fragalysis-2/maxwin/openbind-hippo/a71ev2a/openbind_a71ev2a_c1_scaffold_products.sdf', '/opt/xchem-fragalysis-2/maxwin/openbind-hippo/a71ev2a/cycle_01/bulkdock/openbind_a71ev2a_c1_scaffold_products.sdf', '/opt/xchem-fragalysis-2/maxwin/openbind-hippo/a71ev2a/cycle_01/bulkdock/openbind_a71ev2a_c1_scaffolds.sdf']

>  <fragmenstein_runtime>  (993) 
6.525347

$$$$
C1392-P283
     RDKit          3D

 17 17  0  0  0  0  0  0  0  0999 V2000
    9.6461   11.7018   23.5501 C   0  0  0  0  0  0  0  0  0  0  0  0
    8.6657   12.7570   24.0953 C   0  0  0  0  0  0  0  0  0  0  0  0
    9.4101   13.6234   25.1296 C   0  0  0  0  0  0  0  0  0  0  0  0
    8.1642   13.5841   22.8503 C   0  0  0  0  0  0  0  0  0  0  0  0
    7.1165   13.3787   22.3843 O   0  0  0  0  0  0  0  0  0  0  0  0
    9.2700   14.5674   22.4244 N   0  0  0  0  0  0  0  0  0  0  0  0
    9.2819   15.5749   21.3898 C   0  0  0  0  0  0  0  0  0  0  0  0
   10.5843   15.7646   20.6361 C   0  0  0  0  0  0  0  0  0  0  0  0
   11.6448   15.7283   21.4771 F   0  0  0  0  0  0  0  0  0  0  0  0
   10.7688   14.8472   19.6728 F   0  0  0  0  0  0  0  0  0  0  0  0
   10.5566   16.9796   20.0504 F   0  0  0  0  0  0  0  0  0  0  0  0
    7.3957   12.0861   24.7556 C   0  0  2  0  0  0  0  0  0  0  0  0
    6.6094   13.0341   25.6849 C   0  0  0  0  0  0  0  0  0  0  0  0
    5.3403   12.3702   26.2114 C   0  0  0  0  0  0  0  0  0  0  0  0
    5.6013   10.9796   26.7730 C   0  0  0  0  0  0  0  0  0  0  0  0
    6.3703   10.1393   25.8679 N   0  0  0  0  0  0  0  0  0  0  0  0
    7.6311   10.7395   25.4464 C   0  0  0  0  0  0  0  0  0  0  0  0
  1  2  1  0
  2  3  1  0
  2  4  1  0
  4  5  2  0
  4  6  1  0
  6  7  1  0
  7  8  1  0
  8  9  1  0
  8 10  1  0
  8 11  1  0
 12  2  1  1
 12 13  1  0
 13 14  1  0
 14 15  1  0
 15 16  1  0
 16 17  1  0
 17 12  1  0
M  END
>  <ref_pdb>  (994) 
A4291a

>  <subsites>  (994) 
1 - Active Site

>  <HIPPO Compound ID>  (994) 
1375

>  <energy_score>  (994) 
-8.377713

>  <fragmenstein_mode>  (994) 
expansion

>  <scratch_subdir>  (994) 
/opt/xchem-fragalysis-2/maxwin/BulkDock/SCRATCH/512218/C1392-P283

>  <smiles>  (994) 
CC(C)(C(=O)NCC(F)(F)F)[C@@H]1CCCNC1

>  <alias>  (994) 
C1392-P283

>  <ref_mols>  (994) 
A4291a,A3371a

>  <inspiration_score>  (994) 
None

>  <tags>  (994) 
BulkDock Fragalysis export,fragmenstein_placed,openbind_a71ev2a_c1_knitwork_impure,openbind_a71ev2a_c1_scaffolds

>  <fragmenstein_outcome>  (994) 
acceptable

>  <fragmenstein_error>  (994) 


>  <distance_score>  (994) 
0.94618

>  <inchikey>  (994) 
NWUVTHIOIUIXCU-UHFFFAOYSA-N

>  <name>  (994) 
C1392-P283

>  <HIPPO Pose ID>  (994) 
455533

>  <Energy>  (994) 
63.740231

>  <exports>  (994) 
['/opt/xchem-fragalysis-2/maxwin/BulkDock/OUTPUTS/openbind_a71ev2a_c1_knitwork_impure_165VXJF.sdf', '/opt/xchem-fragalysis-2/maxwin/BulkDock/OUTPUTS/openbind_a71ev2a_c1_knitwork_impure_1B07QS4.sdf', '/opt/xchem-fragalysis-2/maxwin/BulkDock/OUTPUTS/openbind_a71ev2a_c1_knitwork_impure_1B07X5R.sdf', '/opt/xchem-fragalysis-2/maxwin/openbind-hippo/a71ev2a/openbind_a71ev2a_c1_scaffold_products.sdf', '/opt/xchem-fragalysis-2/maxwin/openbind-hippo/a71ev2a/cycle_01/bulkdock/openbind_a71ev2a_c1_scaffold_products.sdf', '/opt/xchem-fragalysis-2/maxwin/openbind-hippo/a71ev2a/cycle_01/bulkdock/openbind_a71ev2a_c1_scaffolds.sdf']

>  <fragmenstein_runtime>  (994) 
4.226103

$$$$
C4093-P283
     RDKit          3D

 11 12  0  0  0  0  0  0  0  0999 V2000
    8.5614    9.4456   24.4794 C   0  0  0  0  0  0  0  0  0  0  0  0
    8.8972   10.7530   24.2501 C   0  0  0  0  0  0  0  0  0  0  0  0
    7.9798   11.4724   24.9621 N   0  0  0  0  0  0  0  0  0  0  0  0
    7.1204   10.6016   25.5884 C   0  0  0  0  0  0  0  0  0  0  0  0
    6.0821   11.0104   26.3656 N   0  0  0  0  0  0  0  0  0  0  0  0
    5.0901    9.9810   26.7225 C   0  0  0  0  0  0  0  0  0  0  0  0
    3.8121   10.5869   27.3001 C   0  0  0  0  0  0  0  0  0  0  0  0
    4.1266   11.6277   28.3644 C   0  0  0  0  0  0  0  0  0  0  0  0
    5.1183   12.6801   27.8668 C   0  0  0  0  0  0  0  0  0  0  0  0
    5.6590   12.3999   26.4625 C   0  0  0  0  0  0  0  0  0  0  0  0
    7.4743    9.3648   25.3173 N   0  0  0  0  0  0  0  0  0  0  0  0
  1  2  2  0
  2  3  1  0
  3  4  1  0
  4  5  1  0
  5  6  1  0
  6  7  1  0
  7  8  1  0
  8  9  1  0
  9 10  1  0
  4 11  2  0
 11  1  1  0
 10  5  1  0
M  END
>  <ref_pdb>  (995) 
A4291a

>  <subsites>  (995) 
1 - Active Site

>  <HIPPO Compound ID>  (995) 
759

>  <energy_score>  (995) 
-16.931909

>  <fragmenstein_mode>  (995) 
expansion

>  <scratch_subdir>  (995) 
/opt/xchem-fragalysis-2/maxwin/BulkDock/SCRATCH/512218/C4093-P283

>  <smiles>  (995) 
c1c[nH]c(N2CCCCC2)n1

>  <alias>  (995) 
C4093-P283

>  <ref_mols>  (995) 
A4291a,A3371a

>  <inspiration_score>  (995) 
None

>  <tags>  (995) 
BulkDock Fragalysis export,fragmenstein_placed,openbind_a71ev2a_c1_knitwork_impure,openbind_a71ev2a_c1_scaffolds

>  <fragmenstein_outcome>  (995) 
acceptable

>  <fragmenstein_error>  (995) 


>  <distance_score>  (995) 
0.834198

>  <inchikey>  (995) 
OLVLBHADGADCLT-UHFFFAOYSA-N

>  <name>  (995) 
C4093-P283

>  <HIPPO Pose ID>  (995) 
455559

>  <Energy>  (995) 
-19.243351

>  <exports>  (995) 
['/opt/xchem-fragalysis-2/maxwin/BulkDock/OUTPUTS/openbind_a71ev2a_c1_knitwork_impure_165VXJF.sdf', '/opt/xchem-fragalysis-2/maxwin/BulkDock/OUTPUTS/openbind_a71ev2a_c1_knitwork_impure_1B07QS4.sdf', '/opt/xchem-fragalysis-2/maxwin/BulkDock/OUTPUTS/openbind_a71ev2a_c1_knitwork_impure_1B07X5R.sdf', '/opt/xchem-fragalysis-2/maxwin/openbind-hippo/a71ev2a/openbind_a71ev2a_c1_scaffold_products.sdf', '/opt/xchem-fragalysis-2/maxwin/openbind-hippo/a71ev2a/cycle_01/bulkdock/openbind_a71ev2a_c1_scaffold_products.sdf', '/opt/xchem-fragalysis-2/maxwin/openbind-hippo/a71ev2a/cycle_01/bulkdock/openbind_a71ev2a_c1_scaffolds.sdf']

>  <fragmenstein_runtime>  (995) 
2.01827

$$$$
C7139-P305
     RDKit          3D

 21 22  0  0  0  0  0  0  0  0999 V2000
    2.8614   12.4777   30.3518 C   0  0  0  0  0  0  0  0  0  0  0  0
    2.9697   10.9870   30.0298 C   0  0  2  0  0  0  0  0  0  0  0  0
    3.6675   10.6294   28.7117 C   0  0  0  0  0  0  0  0  0  0  0  0
    4.8135   11.5250   28.2667 C   0  0  0  0  0  0  0  0  0  0  0  0
    5.0074   12.5903   28.6939 O   0  0  0  0  0  0  0  0  0  0  0  0
    5.5208   10.7600   27.1230 N   0  0  0  0  0  0  0  0  0  0  0  0
    6.4847   11.1603   26.2658 C   0  0  0  0  0  0  0  0  0  0  0  0
    7.2659   10.4938   25.3659 C   0  0  0  0  0  0  0  0  0  0  0  0
    8.0301   11.5107   24.7396 C   0  0  0  0  0  0  0  0  0  0  0  0
    9.0430   11.4315   23.6338 C   0  0  0  0  0  0  0  0  0  0  0  0
    9.4581   10.0070   23.2567 C   0  0  0  0  0  0  0  0  0  0  0  0
   10.2938    9.3688   24.3395 C   0  0  0  0  0  0  0  0  0  0  0  0
   11.3876   10.2075   24.8298 N   0  0  0  0  0  0  0  0  0  0  0  0
   11.0263   11.6108   25.0888 C   0  0  0  0  0  0  0  0  0  0  0  0
   10.2895   12.2599   23.9379 C   0  0  0  0  0  0  0  0  0  0  0  0
    7.7563   12.7174   25.2504 N   0  0  0  0  0  0  0  0  0  0  0  0
    6.8143   12.4802   26.1640 N   0  0  0  0  0  0  0  0  0  0  0  0
    1.5659   10.4057   29.9861 C   0  0  0  0  0  0  0  0  0  0  0  0
    0.9510   10.5237   31.1784 F   0  0  0  0  0  0  0  0  0  0  0  0
    1.5941    9.0939   29.6642 F   0  0  0  0  0  0  0  0  0  0  0  0
    0.8117   11.0304   29.0542 F   0  0  0  0  0  0  0  0  0  0  0  0
  2  1  1  6
  2  3  1  0
  3  4  1  0
  4  5  2  0
  4  6  1  0
  6  7  1  0
  7  8  2  0
  8  9  1  0
  9 10  1  0
 10 11  1  0
 11 12  1  0
 12 13  1  0
 13 14  1  0
 14 15  1  0
  9 16  2  0
 16 17  1  0
  2 18  1  0
 18 19  1  0
 18 20  1  0
 18 21  1  0
 17  7  1  0
 15 10  1  0
M  END
>  <ref_pdb>  (996) 
A4321b

>  <subsites>  (996) 
1 - Active Site

>  <HIPPO Compound ID>  (996) 
7139

>  <energy_score>  (996) 
-3.91446

>  <fragmenstein_mode>  (996) 
expansion

>  <scratch_subdir>  (996) 
/opt/xchem-fragalysis-2/maxwin/BulkDock/SCRATCH/512218/C7139-P305

>  <smiles>  (996) 
C[C@H](CC(=O)Nc1cc(C2CCNCC2)n[nH]1)C(F)(F)F

>  <alias>  (996) 
C7139-P305

>  <ref_mols>  (996) 
A1445a,A4321b

>  <inspiration_score>  (996) 
None

>  <tags>  (996) 
BulkDock Fragalysis export,fragmenstein_placed,openbind_a71ev2a_c1_knitwork_impure,openbind_a71ev2a_c1_scaffolds

>  <fragmenstein_outcome>  (996) 
acceptable

>  <fragmenstein_error>  (996) 


>  <distance_score>  (996) 
0.914816

>  <inchikey>  (996) 
NUBNQKVFZUNLSK-UHFFFAOYSA-N

>  <name>  (996) 
C7139-P305

>  <HIPPO Pose ID>  (996) 
455614

>  <Energy>  (996) 
18.9822

>  <exports>  (996) 
['/opt/xchem-fragalysis-2/maxwin/BulkDock/OUTPUTS/openbind_a71ev2a_c1_knitwork_impure_165VXJF.sdf', '/opt/xchem-fragalysis-2/maxwin/BulkDock/OUTPUTS/openbind_a71ev2a_c1_knitwork_impure_1B07QS4.sdf', '/opt/xchem-fragalysis-2/maxwin/BulkDock/OUTPUTS/openbind_a71ev2a_c1_knitwork_impure_1B07X5R.sdf', '/opt/xchem-fragalysis-2/maxwin/openbind-hippo/a71ev2a/openbind_a71ev2a_c1_scaffold_products.sdf', '/opt/xchem-fragalysis-2/maxwin/openbind-hippo/a71ev2a/cycle_01/bulkdock/openbind_a71ev2a_c1_scaffold_products.sdf', '/opt/xchem-fragalysis-2/maxwin/openbind-hippo/a71ev2a/cycle_01/bulkdock/openbind_a71ev2a_c1_scaffolds.sdf']

>  <fragmenstein_runtime>  (996) 
5.096444

$$$$
C38611-P550
     RDKit          3D

 13 13  0  0  0  0  0  0  0  0999 V2000
    6.3264   13.1437   26.0875 C   0  0  0  0  0  0  0  0  0  0  0  0
    6.9038   12.4268   24.8758 C   0  0  0  0  0  0  0  0  0  0  0  0
    7.0882   10.9426   25.1799 C   0  0  0  0  0  0  0  0  0  0  0  0
    8.2108   13.0063   24.3255 C   0  0  0  0  0  0  0  0  0  0  0  0
    9.1165   12.2467   23.9665 O   0  0  0  0  0  0  0  0  0  0  0  0
    8.3092   14.5282   24.1552 C   0  0  0  0  0  0  0  0  0  0  0  0
    9.4976   14.8687   23.3760 N   0  0  0  0  0  0  0  0  0  0  0  0
    9.3199   15.2030   21.9634 C   0  0  0  0  0  0  0  0  0  0  0  0
   10.5869   15.1219   21.1283 C   0  0  0  0  0  0  0  0  0  0  0  0
   11.7439   15.7595   21.8685 C   0  0  0  0  0  0  0  0  0  0  0  0
   11.9520   15.0221   23.1747 C   0  0  0  0  0  0  0  0  0  0  0  0
   10.7111   14.9543   24.0361 C   0  0  0  0  0  0  0  0  0  0  0  0
   10.8050   14.8784   25.2639 O   0  0  0  0  0  0  0  0  0  0  0  0
  1  2  1  0
  2  3  1  0
  2  4  1  0
  4  5  2  0
  4  6  1  0
  6  7  1  0
  7  8  1  0
  8  9  1  0
  9 10  1  0
 10 11  1  0
 11 12  1  0
 12 13  2  0
 12  7  1  0
M  END
>  <ref_pdb>  (997) 
A5036a

>  <subsites>  (997) 
1 - Active Site

>  <HIPPO Compound ID>  (997) 
1883

>  <energy_score>  (997) 
-29.167677

>  <fragmenstein_mode>  (997) 
expansion

>  <scratch_subdir>  (997) 
/opt/xchem-fragalysis-2/maxwin/BulkDock/SCRATCH/512218/C38611-P550

>  <smiles>  (997) 
CC(C)C(=O)CN1CCCCC1=O

>  <alias>  (997) 
C38611-P550

>  <ref_mols>  (997) 
A1775a,A5036a

>  <inspiration_score>  (997) 
None

>  <tags>  (997) 
BulkDock Fragalysis export,fragmenstein_placed,openbind_a71ev2a_c1_knitwork_impure,openbind_a71ev2a_c1_scaffolds

>  <fragmenstein_outcome>  (997) 
acceptable

>  <fragmenstein_error>  (997) 


>  <distance_score>  (997) 
0.857822

>  <inchikey>  (997) 
KCHUUQFYYOTEQS-UHFFFAOYSA-N

>  <name>  (997) 
C38611-P550

>  <HIPPO Pose ID>  (997) 
456016

>  <Energy>  (997) 
12.466382

>  <exports>  (997) 
['/opt/xchem-fragalysis-2/maxwin/BulkDock/OUTPUTS/openbind_a71ev2a_c1_knitwork_impure_165VXJF.sdf', '/opt/xchem-fragalysis-2/maxwin/BulkDock/OUTPUTS/openbind_a71ev2a_c1_knitwork_impure_1B07QS4.sdf', '/opt/xchem-fragalysis-2/maxwin/BulkDock/OUTPUTS/openbind_a71ev2a_c1_knitwork_impure_1B07X5R.sdf', '/opt/xchem-fragalysis-2/maxwin/openbind-hippo/a71ev2a/openbind_a71ev2a_c1_scaffold_products.sdf', '/opt/xchem-fragalysis-2/maxwin/openbind-hippo/a71ev2a/cycle_01/bulkdock/openbind_a71ev2a_c1_scaffold_products.sdf', '/opt/xchem-fragalysis-2/maxwin/openbind-hippo/a71ev2a/cycle_01/bulkdock/openbind_a71ev2a_c1_scaffolds.sdf']

>  <fragmenstein_runtime>  (997) 
2.232301

$$$$
C38614-P550
     RDKit          3D

 13 13  0  0  0  0  0  0  0  0999 V2000
   10.3523   15.5290   19.8530 C   0  0  0  0  0  0  0  0  0  0  0  0
   10.8938   15.0679   21.1990 C   0  0  0  0  0  0  0  0  0  0  0  0
   12.1764   15.8225   21.5321 C   0  0  0  0  0  0  0  0  0  0  0  0
    9.8556   15.2662   22.1711 O   0  0  0  0  0  0  0  0  0  0  0  0
   10.3213   15.1205   23.5039 C   0  0  0  0  0  0  0  0  0  0  0  0
    9.1690   14.8213   24.4437 C   0  0  0  0  0  0  0  0  0  0  0  0
    8.3815   13.5566   24.1007 C   0  0  2  0  0  0  0  0  0  0  0  0
    7.2065   13.4521   25.0802 C   0  0  0  0  0  0  0  0  0  0  0  0
    6.4472   12.1694   24.8361 C   0  0  0  0  0  0  0  0  0  0  0  0
    7.3625   10.9742   24.9596 C   0  0  0  0  0  0  0  0  0  0  0  0
    8.5405   11.0987   24.1452 N   0  0  0  0  0  0  0  0  0  0  0  0
    9.2334   12.2834   24.0979 C   0  0  0  0  0  0  0  0  0  0  0  0
   10.4547   12.2516   23.9966 O   0  0  0  0  0  0  0  0  0  0  0  0
  1  2  1  0
  2  3  1  0
  2  4  1  0
  4  5  1  0
  5  6  1  0
  7  6  1  1
  7  8  1  0
  8  9  1  0
  9 10  1  0
 10 11  1  0
 11 12  1  0
 12 13  2  0
 12  7  1  0
M  END
>  <ref_pdb>  (998) 
A5036a

>  <subsites>  (998) 
1 - Active Site

>  <HIPPO Compound ID>  (998) 
11851

>  <energy_score>  (998) 
-33.880214

>  <fragmenstein_mode>  (998) 
expansion

>  <scratch_subdir>  (998) 
/opt/xchem-fragalysis-2/maxwin/BulkDock/SCRATCH/512218/C38614-P550

>  <smiles>  (998) 
CC(C)OCC[C@@H]1CCCNC1=O

>  <alias>  (998) 
C38614-P550

>  <ref_mols>  (998) 
A1775a,A5036a

>  <inspiration_score>  (998) 
None

>  <tags>  (998) 
BulkDock Fragalysis export,fragmenstein_placed,openbind_a71ev2a_c1_knitwork_impure,openbind_a71ev2a_c1_scaffolds

>  <fragmenstein_outcome>  (998) 
acceptable

>  <fragmenstein_error>  (998) 


>  <distance_score>  (998) 
0.967316

>  <inchikey>  (998) 
LLBDRWNYPBEFLX-UHFFFAOYSA-N

>  <name>  (998) 
C38614-P550

>  <HIPPO Pose ID>  (998) 
456019

>  <Energy>  (998) 
-11.295174

>  <exports>  (998) 
['/opt/xchem-fragalysis-2/maxwin/BulkDock/OUTPUTS/openbind_a71ev2a_c1_knitwork_impure_165VXJF.sdf', '/opt/xchem-fragalysis-2/maxwin/BulkDock/OUTPUTS/openbind_a71ev2a_c1_knitwork_impure_1B07QS4.sdf', '/opt/xchem-fragalysis-2/maxwin/BulkDock/OUTPUTS/openbind_a71ev2a_c1_knitwork_impure_1B07X5R.sdf', '/opt/xchem-fragalysis-2/maxwin/openbind-hippo/a71ev2a/openbind_a71ev2a_c1_scaffold_products.sdf', '/opt/xchem-fragalysis-2/maxwin/openbind-hippo/a71ev2a/cycle_01/bulkdock/openbind_a71ev2a_c1_scaffold_products.sdf', '/opt/xchem-fragalysis-2/maxwin/openbind-hippo/a71ev2a/cycle_01/bulkdock/openbind_a71ev2a_c1_scaffolds.sdf']

>  <fragmenstein_runtime>  (998) 
1.369697

$$$$
C38621-P550
     RDKit          3D

 12 12  0  0  0  0  0  0  0  0999 V2000
   10.8661   15.4553   19.4921 C   0  0  0  0  0  0  0  0  0  0  0  0
   11.1403   15.2542   20.9692 C   0  0  0  0  0  0  0  0  0  0  0  0
    9.8578   15.2074   21.7889 C   0  0  0  0  0  0  0  0  0  0  0  0
   10.2332   15.0483   23.1539 O   0  0  0  0  0  0  0  0  0  0  0  0
    9.1593   14.8890   24.0665 C   0  0  0  0  0  0  0  0  0  0  0  0
    8.4021   13.5725   23.9305 C   0  0  2  0  0  0  0  0  0  0  0  0
    7.2885   13.5157   24.9797 C   0  0  0  0  0  0  0  0  0  0  0  0
    6.5266   12.2148   24.8320 C   0  0  0  0  0  0  0  0  0  0  0  0
    7.4546   11.0242   24.9345 C   0  0  0  0  0  0  0  0  0  0  0  0
    8.6211   11.1436   24.0983 N   0  0  0  0  0  0  0  0  0  0  0  0
    9.3003   12.3419   24.0259 C   0  0  0  0  0  0  0  0  0  0  0  0
   10.5235   12.3394   23.9796 O   0  0  0  0  0  0  0  0  0  0  0  0
  1  2  1  0
  2  3  1  0
  3  4  1  0
  4  5  1  0
  6  5  1  1
  6  7  1  0
  7  8  1  0
  8  9  1  0
  9 10  1  0
 10 11  1  0
 11 12  2  0
 11  6  1  0
M  END
>  <ref_pdb>  (999) 
A5036a

>  <subsites>  (999) 
1 - Active Site

>  <HIPPO Compound ID>  (999) 
6044

>  <energy_score>  (999) 
-18.3144

>  <fragmenstein_mode>  (999) 
expansion

>  <scratch_subdir>  (999) 
/opt/xchem-fragalysis-2/maxwin/BulkDock/SCRATCH/512218/C38621-P550

>  <smiles>  (999) 
CCCOC[C@@H]1CCCNC1=O

>  <alias>  (999) 
C38621-P550

>  <ref_mols>  (999) 
A1775a,A5036a

>  <inspiration_score>  (999) 
None

>  <tags>  (999) 
BulkDock Fragalysis export,fragmenstein_placed,openbind_a71ev2a_c1_knitwork_impure,openbind_a71ev2a_c1_scaffolds

>  <fragmenstein_outcome>  (999) 
acceptable

>  <fragmenstein_error>  (999) 


>  <distance_score>  (999) 
0.833531

>  <inchikey>  (999) 
ZSANGZPGNFVAPL-UHFFFAOYSA-N

>  <name>  (999) 
C38621-P550

>  <HIPPO Pose ID>  (999) 
456024

>  <Energy>  (999) 
-9.033542

>  <exports>  (999) 
['/opt/xchem-fragalysis-2/maxwin/BulkDock/OUTPUTS/openbind_a71ev2a_c1_knitwork_impure_165VXJF.sdf', '/opt/xchem-fragalysis-2/maxwin/BulkDock/OUTPUTS/openbind_a71ev2a_c1_knitwork_impure_1B07QS4.sdf', '/opt/xchem-fragalysis-2/maxwin/BulkDock/OUTPUTS/openbind_a71ev2a_c1_knitwork_impure_1B07X5R.sdf', '/opt/xchem-fragalysis-2/maxwin/openbind-hippo/a71ev2a/openbind_a71ev2a_c1_scaffold_products.sdf', '/opt/xchem-fragalysis-2/maxwin/openbind-hippo/a71ev2a/cycle_01/bulkdock/openbind_a71ev2a_c1_scaffold_products.sdf', '/opt/xchem-fragalysis-2/maxwin/openbind-hippo/a71ev2a/cycle_01/bulkdock/openbind_a71ev2a_c1_scaffolds.sdf']

>  <fragmenstein_runtime>  (999) 
1.441444

$$$$
C2408-P441
     RDKit          3D

 15 15  0  0  0  0  0  0  0  0999 V2000
    5.3415   13.6566   27.8838 C   0  0  0  0  0  0  0  0  0  0  0  0
    6.6257   14.0754   27.1782 C   0  0  0  0  0  0  0  0  0  0  0  0
    6.8708   13.2833   25.8852 C   0  0  2  0  0  0  0  0  0  0  0  0
    7.0070   11.7831   26.1589 C   0  0  0  0  0  0  0  0  0  0  0  0
    8.1289   13.7914   25.1450 C   0  0  0  0  0  0  0  0  0  0  0  0
    8.9977   14.3778   25.8000 O   0  0  0  0  0  0  0  0  0  0  0  0
    8.3194   13.3938   23.6393 C   0  0  0  0  0  0  0  0  0  0  0  0
    6.9676   13.5332   22.9283 C   0  0  0  0  0  0  0  0  0  0  0  0
    8.8529   11.9429   23.6551 C   0  0  0  0  0  0  0  0  0  0  0  0
    9.3705   14.1411   22.9169 N   0  0  0  0  0  0  0  0  0  0  0  0
   10.6170   14.4167   23.6118 C   0  0  0  0  0  0  0  0  0  0  0  0
   11.7774   14.4570   22.6377 C   0  0  0  0  0  0  0  0  0  0  0  0
   11.5454   15.4482   21.5173 C   0  0  0  0  0  0  0  0  0  0  0  0
   10.2224   15.1692   20.8305 C   0  0  0  0  0  0  0  0  0  0  0  0
    9.0679   15.0664   21.8282 C   0  0  0  0  0  0  0  0  0  0  0  0
  1  2  1  0
  2  3  1  0
  3  4  1  1
  3  5  1  0
  5  6  2  0
  5  7  1  0
  7  8  1  0
  7  9  1  0
  7 10  1  0
 10 11  1  0
 11 12  1  0
 12 13  1  0
 13 14  1  0
 14 15  1  0
 15 10  1  0
M  END
>  <ref_pdb>  (1000) 
A4708a

>  <subsites>  (1000) 
1 - Active Site

>  <HIPPO Compound ID>  (1000) 
15052

>  <energy_score>  (1000) 
-49.465328

>  <fragmenstein_mode>  (1000) 
expansion

>  <scratch_subdir>  (1000) 
/opt/xchem-fragalysis-2/maxwin/BulkDock/SCRATCH/512218/C2408-P441

>  <smiles>  (1000) 
CC[C@H](C)C(=O)C(C)(C)N1CCCCC1

>  <alias>  (1000) 
C2408-P441

>  <ref_mols>  (1000) 
A4708a,A1779a

>  <inspiration_score>  (1000) 
None

>  <tags>  (1000) 
BulkDock Fragalysis export,fragmenstein_placed,openbind_a71ev2a_c1_knitwork_impure,openbind_a71ev2a_c1_scaffolds

>  <fragmenstein_outcome>  (1000) 
acceptable

>  <fragmenstein_error>  (1000) 


>  <distance_score>  (1000) 
0.996262

>  <inchikey>  (1000) 
HXNOWCAYKFJUHZ-UHFFFAOYSA-N

>  <name>  (1000) 
C2408-P441

>  <HIPPO Pose ID>  (1000) 
456052

>  <Energy>  (1000) 
65.918831

>  <exports>  (1000) 
['/opt/xchem-fragalysis-2/maxwin/BulkDock/OUTPUTS/openbind_a71ev2a_c1_knitwork_impure_165VXJF.sdf', '/opt/xchem-fragalysis-2/maxwin/BulkDock/OUTPUTS/openbind_a71ev2a_c1_knitwork_impure_1B07QS4.sdf', '/opt/xchem-fragalysis-2/maxwin/BulkDock/OUTPUTS/openbind_a71ev2a_c1_knitwork_impure_1B07X5R.sdf', '/opt/xchem-fragalysis-2/maxwin/openbind-hippo/a71ev2a/openbind_a71ev2a_c1_scaffold_products.sdf', '/opt/xchem-fragalysis-2/maxwin/openbind-hippo/a71ev2a/cycle_01/bulkdock/openbind_a71ev2a_c1_scaffold_products.sdf', '/opt/xchem-fragalysis-2/maxwin/openbind-hippo/a71ev2a/cycle_01/bulkdock/openbind_a71ev2a_c1_scaffolds.sdf']

>  <fragmenstein_runtime>  (1000) 
26.014854

$$$$
C35850-P200
     RDKit          3D

 11 11  0  0  0  0  0  0  0  0999 V2000
    8.6103   14.8492   26.1868 C   0  0  0  0  0  0  0  0  0  0  0  0
    8.9734   14.6813   24.8280 O   0  0  0  0  0  0  0  0  0  0  0  0
   10.3058   14.1739   24.6289 C   0  0  0  0  0  0  0  0  0  0  0  0
   10.4634   13.7364   23.1426 C   0  0  1  0  0  0  0  0  0  0  0  0
   11.8262   14.1776   22.6193 C   0  0  0  0  0  0  0  0  0  0  0  0
   10.3811   12.2954   22.9846 N   0  0  0  0  0  0  0  0  0  0  0  0
    9.4745   11.5498   23.6146 C   0  0  0  0  0  0  0  0  0  0  0  0
    9.4771   10.2515   23.7532 N   0  0  0  0  0  0  0  0  0  0  0  0
    8.5017   10.0426   24.6789 C   0  0  0  0  0  0  0  0  0  0  0  0
    7.8682   11.2074   25.0007 C   0  0  0  0  0  0  0  0  0  0  0  0
    8.4683   12.1806   24.2831 O   0  0  0  0  0  0  0  0  0  0  0  0
  1  2  1  0
  2  3  1  0
  3  4  1  0
  4  5  1  1
  4  6  1  0
  6  7  1  0
  7  8  2  0
  8  9  1  0
  9 10  2  0
 10 11  1  0
 11  7  1  0
M  END
>  <ref_pdb>  (1001) 
A3623a

>  <subsites>  (1001) 
1 - Active Site

>  <HIPPO Compound ID>  (1001) 
4118

>  <energy_score>  (1001) 
-14.344816

>  <fragmenstein_mode>  (1001) 
expansion

>  <scratch_subdir>  (1001) 
/opt/xchem-fragalysis-2/maxwin/BulkDock/SCRATCH/512218/C35850-P200

>  <smiles>  (1001) 
COC[C@@H](C)Nc1ncco1

>  <alias>  (1001) 
C35850-P200

>  <ref_mols>  (1001) 
A3623a,A0310a

>  <inspiration_score>  (1001) 
None

>  <tags>  (1001) 
BulkDock Fragalysis export,fragmenstein_placed,openbind_a71ev2a_c1_knitwork_impure,openbind_a71ev2a_c1_scaffolds

>  <fragmenstein_outcome>  (1001) 
acceptable

>  <fragmenstein_error>  (1001) 


>  <distance_score>  (1001) 
0.758722

>  <inchikey>  (1001) 
JXTZNDLJXPZAEM-UHFFFAOYSA-N

>  <name>  (1001) 
C35850-P200

>  <HIPPO Pose ID>  (1001) 
456214

>  <Energy>  (1001) 
-6.402524

>  <exports>  (1001) 
['/opt/xchem-fragalysis-2/maxwin/BulkDock/OUTPUTS/openbind_a71ev2a_c1_knitwork_impure_165VXJF.sdf', '/opt/xchem-fragalysis-2/maxwin/BulkDock/OUTPUTS/openbind_a71ev2a_c1_knitwork_impure_1B07QS4.sdf', '/opt/xchem-fragalysis-2/maxwin/BulkDock/OUTPUTS/openbind_a71ev2a_c1_knitwork_impure_1B07X5R.sdf', '/opt/xchem-fragalysis-2/maxwin/openbind-hippo/a71ev2a/openbind_a71ev2a_c1_scaffold_products.sdf', '/opt/xchem-fragalysis-2/maxwin/openbind-hippo/a71ev2a/cycle_01/bulkdock/openbind_a71ev2a_c1_scaffold_products.sdf', '/opt/xchem-fragalysis-2/maxwin/openbind-hippo/a71ev2a/cycle_01/bulkdock/openbind_a71ev2a_c1_scaffolds.sdf']

>  <fragmenstein_runtime>  (1001) 
2.148856

$$$$
C35879-P37
     RDKit          3D

 12 12  0  0  0  0  0  0  0  0999 V2000
    8.5629   14.5772   25.6379 C   0  0  0  0  0  0  0  0  0  0  0  0
    9.1959   14.3234   24.3880 O   0  0  0  0  0  0  0  0  0  0  0  0
   10.5176   13.7922   24.5405 C   0  0  0  0  0  0  0  0  0  0  0  0
   11.0960   13.1532   23.2589 C   0  0  2  0  0  0  0  0  0  0  0  0
   11.4320   14.1829   22.1763 C   0  0  0  0  0  0  0  0  0  0  0  0
   12.7025   15.2943   22.6967 Cl  0  0  0  0  0  0  0  0  0  0  0  0
   10.2272   12.1407   22.6503 N   0  0  0  0  0  0  0  0  0  0  0  0
    9.6283   11.1992   23.3874 C   0  0  0  0  0  0  0  0  0  0  0  0
    9.6767    9.9107   23.1832 N   0  0  0  0  0  0  0  0  0  0  0  0
    8.8022    9.4053   24.0970 C   0  0  0  0  0  0  0  0  0  0  0  0
    8.2373   10.4161   24.8263 C   0  0  0  0  0  0  0  0  0  0  0  0
    8.7685   11.5803   24.3763 O   0  0  0  0  0  0  0  0  0  0  0  0
  1  2  1  0
  2  3  1  0
  4  3  1  1
  4  5  1  0
  5  6  1  0
  4  7  1  0
  7  8  1  0
  8  9  2  0
  9 10  1  0
 10 11  2  0
 11 12  1  0
 12  8  1  0
M  END
>  <ref_pdb>  (1002) 
A0310a

>  <subsites>  (1002) 
1 - Active Site

>  <HIPPO Compound ID>  (1002) 
14136

>  <energy_score>  (1002) 
-18.89314

>  <fragmenstein_mode>  (1002) 
expansion

>  <scratch_subdir>  (1002) 
/opt/xchem-fragalysis-2/maxwin/BulkDock/SCRATCH/512218/C35879-P37

>  <smiles>  (1002) 
COC[C@H](CCl)Nc1ncco1

>  <alias>  (1002) 
C35879-P37

>  <ref_mols>  (1002) 
A3623a,A0310a

>  <inspiration_score>  (1002) 
None

>  <tags>  (1002) 
BulkDock Fragalysis export,fragmenstein_placed,openbind_a71ev2a_c1_knitwork_impure,openbind_a71ev2a_c1_scaffolds

>  <fragmenstein_outcome>  (1002) 
acceptable

>  <fragmenstein_error>  (1002) 


>  <distance_score>  (1002) 
0.711456

>  <inchikey>  (1002) 
GLKOPRGBSIQCBP-UHFFFAOYSA-N

>  <name>  (1002) 
C35879-P37

>  <HIPPO Pose ID>  (1002) 
456233

>  <Energy>  (1002) 
3.374343

>  <exports>  (1002) 
['/opt/xchem-fragalysis-2/maxwin/BulkDock/OUTPUTS/openbind_a71ev2a_c1_knitwork_impure_165VXJF.sdf', '/opt/xchem-fragalysis-2/maxwin/BulkDock/OUTPUTS/openbind_a71ev2a_c1_knitwork_impure_1B07QS4.sdf', '/opt/xchem-fragalysis-2/maxwin/BulkDock/OUTPUTS/openbind_a71ev2a_c1_knitwork_impure_1B07X5R.sdf', '/opt/xchem-fragalysis-2/maxwin/openbind-hippo/a71ev2a/openbind_a71ev2a_c1_scaffold_products.sdf', '/opt/xchem-fragalysis-2/maxwin/openbind-hippo/a71ev2a/cycle_01/bulkdock/openbind_a71ev2a_c1_scaffold_products.sdf', '/opt/xchem-fragalysis-2/maxwin/openbind-hippo/a71ev2a/cycle_01/bulkdock/openbind_a71ev2a_c1_scaffolds.sdf']

>  <fragmenstein_runtime>  (1002) 
1.959262

$$$$
C716-P440
     RDKit          3D

 14 16  0  0  0  0  0  0  0  0999 V2000
   10.4303   15.8549   21.5331 C   0  0  0  0  0  0  0  0  0  0  0  0
   11.4987   15.1429   22.0534 C   0  0  0  0  0  0  0  0  0  0  0  0
   11.2567   14.2011   23.0489 C   0  0  0  0  0  0  0  0  0  0  0  0
    9.9489   13.9909   23.4955 C   0  0  0  0  0  0  0  0  0  0  0  0
    9.6805   12.8086   24.2630 N   0  0  0  0  0  0  0  0  0  0  0  0
    8.4803   12.9978   25.1035 C   0  0  0  0  0  0  0  0  0  0  0  0
    8.1016   11.6751   25.7739 C   0  0  0  0  0  0  0  0  0  0  0  0
    7.8022   10.6303   24.7041 C   0  0  0  0  0  0  0  0  0  0  0  0
    9.0151   10.4730   23.8297 C   0  0  0  0  0  0  0  0  0  0  0  0
    9.9657    9.3757   24.2318 C   0  0  0  0  0  0  0  0  0  0  0  0
    9.1898    9.2414   22.9638 C   0  0  0  0  0  0  0  0  0  0  0  0
    9.4855   11.7736   23.2251 C   0  0  0  0  0  0  0  0  0  0  0  0
    8.9198   14.7381   23.0441 N   0  0  0  0  0  0  0  0  0  0  0  0
    9.1773   15.6378   22.0726 C   0  0  0  0  0  0  0  0  0  0  0  0
  1  2  2  0
  2  3  1  0
  3  4  2  0
  4  5  1  0
  5  6  1  0
  6  7  1  0
  7  8  1  0
  8  9  1  0
  9 10  1  0
 10 11  1  0
  9 12  1  0
  4 13  1  0
 13 14  2  0
 14  1  1  0
 12  5  1  0
 11  9  1  0
M  END
>  <ref_pdb>  (1003) 
A4707a

>  <subsites>  (1003) 
1 - Active Site

>  <HIPPO Compound ID>  (1003) 
40896

>  <energy_score>  (1003) 
-26.143309

>  <fragmenstein_mode>  (1003) 
expansion

>  <scratch_subdir>  (1003) 
/opt/xchem-fragalysis-2/maxwin/BulkDock/SCRATCH/512218/C716-P440

>  <smiles>  (1003) 
c1ccc(N2CCCC3(CC3)C2)nc1

>  <alias>  (1003) 
C716-P440

>  <ref_mols>  (1003) 
A4707a,A2629a

>  <inspiration_score>  (1003) 
None

>  <tags>  (1003) 
BulkDock Fragalysis export,fragmenstein_placed,openbind_a71ev2a_c1_knitwork_impure,openbind_a71ev2a_c1_scaffolds

>  <fragmenstein_outcome>  (1003) 
acceptable

>  <fragmenstein_error>  (1003) 


>  <distance_score>  (1003) 
0.983835

>  <inchikey>  (1003) 
NRWGAZDGIQPBJK-UHFFFAOYSA-N

>  <name>  (1003) 
C716-P440

>  <HIPPO Pose ID>  (1003) 
456475

>  <Energy>  (1003) 
1.663706

>  <exports>  (1003) 
['/opt/xchem-fragalysis-2/maxwin/BulkDock/OUTPUTS/openbind_a71ev2a_c1_knitwork_impure_165VXJF.sdf', '/opt/xchem-fragalysis-2/maxwin/BulkDock/OUTPUTS/openbind_a71ev2a_c1_knitwork_impure_1B07QS4.sdf', '/opt/xchem-fragalysis-2/maxwin/BulkDock/OUTPUTS/openbind_a71ev2a_c1_knitwork_impure_1B07X5R.sdf', '/opt/xchem-fragalysis-2/maxwin/openbind-hippo/a71ev2a/openbind_a71ev2a_c1_scaffold_products.sdf', '/opt/xchem-fragalysis-2/maxwin/openbind-hippo/a71ev2a/cycle_01/bulkdock/openbind_a71ev2a_c1_scaffold_products.sdf', '/opt/xchem-fragalysis-2/maxwin/openbind-hippo/a71ev2a/cycle_01/bulkdock/openbind_a71ev2a_c1_scaffolds.sdf']

>  <fragmenstein_runtime>  (1003) 
2.926122

$$$$
C25767-P356
     RDKit          3D

 13 13  0  0  0  0  0  0  0  0999 V2000
    9.9684   13.7652   23.5363 C   0  0  0  0  0  0  0  0  0  0  0  0
    8.4780   14.0290   23.6938 C   0  0  0  0  0  0  0  0  0  0  0  0
    7.8473   13.2665   24.8788 C   0  0  2  0  0  0  0  0  0  0  0  0
    7.7982   11.7608   24.5675 C   0  0  0  0  0  0  0  0  0  0  0  0
    6.4491   13.8551   25.2465 C   0  0  2  0  0  0  0  0  0  0  0  0
    5.6595   12.9565   26.2057 C   0  0  0  0  0  0  0  0  0  0  0  0
    5.7238   13.8961   24.0792 F   0  0  0  0  0  0  0  0  0  0  0  0
    6.4540   15.3177   25.7478 C   0  0  0  0  0  0  0  0  0  0  0  0
    7.3737   15.6762   26.9264 C   0  0  1  0  0  0  0  0  0  0  0  0
    7.2014   17.1351   27.3436 C   0  0  0  0  0  0  0  0  0  0  0  0
    6.1162   17.1212   28.4101 C   0  0  0  0  0  0  0  0  0  0  0  0
    5.9414   15.6589   28.7800 C   0  0  0  0  0  0  0  0  0  0  0  0
    7.0841   14.9574   28.1787 N   0  0  0  0  0  0  0  0  0  0  0  0
  1  2  1  0
  2  3  1  0
  3  4  1  6
  3  5  1  0
  5  6  1  1
  5  7  1  0
  5  8  1  0
  9  8  1  6
  9 10  1  0
 10 11  1  0
 11 12  1  0
 12 13  1  0
 13  9  1  0
M  END
>  <ref_pdb>  (1004) 
A4418a

>  <subsites>  (1004) 
1 - Active Site

>  <HIPPO Compound ID>  (1004) 
20308

>  <energy_score>  (1004) 
-30.165644

>  <fragmenstein_mode>  (1004) 
expansion

>  <scratch_subdir>  (1004) 
/opt/xchem-fragalysis-2/maxwin/BulkDock/SCRATCH/512218/C25767-P356

>  <smiles>  (1004) 
CC[C@H](C)[C@](C)(F)C[C@H]1CCCN1

>  <alias>  (1004) 
C25767-P356

>  <ref_mols>  (1004) 
A1775a,A4418a

>  <inspiration_score>  (1004) 
None

>  <tags>  (1004) 
BulkDock Fragalysis export,fragmenstein_placed,openbind_a71ev2a_c1_knitwork_impure,openbind_a71ev2a_c1_scaffolds

>  <fragmenstein_outcome>  (1004) 
acceptable

>  <fragmenstein_error>  (1004) 


>  <distance_score>  (1004) 
0.997638

>  <inchikey>  (1004) 
HJXNHEVQRCOAHH-UHFFFAOYSA-N

>  <name>  (1004) 
C25767-P356

>  <HIPPO Pose ID>  (1004) 
456780

>  <Energy>  (1004) 
20.782066

>  <exports>  (1004) 
['/opt/xchem-fragalysis-2/maxwin/BulkDock/OUTPUTS/openbind_a71ev2a_c1_knitwork_impure_165VXJF.sdf', '/opt/xchem-fragalysis-2/maxwin/BulkDock/OUTPUTS/openbind_a71ev2a_c1_knitwork_impure_1B07QS4.sdf', '/opt/xchem-fragalysis-2/maxwin/BulkDock/OUTPUTS/openbind_a71ev2a_c1_knitwork_impure_1B07X5R.sdf', '/opt/xchem-fragalysis-2/maxwin/openbind-hippo/a71ev2a/openbind_a71ev2a_c1_scaffold_products.sdf', '/opt/xchem-fragalysis-2/maxwin/openbind-hippo/a71ev2a/cycle_01/bulkdock/openbind_a71ev2a_c1_scaffold_products.sdf', '/opt/xchem-fragalysis-2/maxwin/openbind-hippo/a71ev2a/cycle_01/bulkdock/openbind_a71ev2a_c1_scaffolds.sdf']

>  <fragmenstein_runtime>  (1004) 
8.788365

$$$$
C92177-P134
     RDKit          3D

 23 26  0  0  0  0  0  0  0  0999 V2000
   12.7035   12.4711   23.6985 O   0  0  0  0  0  0  0  0  0  0  0  0
   11.7924   13.0719   23.2819 C   0  0  0  0  0  0  0  0  0  0  0  0
   10.2814   12.9759   23.6266 N   0  0  0  0  0  0  0  0  0  0  0  0
    9.6107   12.1063   24.4375 C   0  0  0  0  0  0  0  0  0  0  0  0
    9.9957   10.8308   24.7557 C   0  0  0  0  0  0  0  0  0  0  0  0
    8.9491   10.2287   25.4018 N   0  0  0  0  0  0  0  0  0  0  0  0
    7.9613   11.1461   25.6655 C   0  0  0  0  0  0  0  0  0  0  0  0
    6.7716   11.0167   26.3901 C   0  0  0  0  0  0  0  0  0  0  0  0
    5.9746   12.1524   26.5362 C   0  0  0  0  0  0  0  0  0  0  0  0
    6.3334   13.3575   25.9398 C   0  0  0  0  0  0  0  0  0  0  0  0
    7.5024   13.4598   25.1767 C   0  0  0  0  0  0  0  0  0  0  0  0
    8.3455   12.3383   25.0512 C   0  0  0  0  0  0  0  0  0  0  0  0
   11.9425   14.0515   22.1751 C   0  0  0  0  0  0  0  0  0  0  0  0
   12.2410   13.6458   20.8837 C   0  0  0  0  0  0  0  0  0  0  0  0
   11.8007   14.3355   19.7435 C   0  0  0  0  0  0  0  0  0  0  0  0
   10.9977   15.4065   19.9538 C   0  0  0  0  0  0  0  0  0  0  0  0
   10.9982   15.9496   21.2303 C   0  0  0  0  0  0  0  0  0  0  0  0
   11.4535   15.3045   22.3507 C   0  0  0  0  0  0  0  0  0  0  0  0
   10.4685   17.2476   21.2110 N   0  0  0  0  0  0  0  0  0  0  0  0
    9.1640   17.1225   20.2402 S   0  0  0  0  0  0  0  0  0  0  0  0
    8.7996   18.4189   19.7270 O   0  0  0  0  0  0  0  0  0  0  0  0
    8.2723   16.2988   21.0441 O   0  0  0  0  0  0  0  0  0  0  0  0
   10.0668   16.1049   19.0046 C   0  0  0  0  0  0  0  0  0  0  0  0
  1  2  2  0
  2  3  1  0
  3  4  1  0
  4  5  2  0
  5  6  1  0
  6  7  1  0
  7  8  2  0
  8  9  1  0
  9 10  2  0
 10 11  1  0
 11 12  2  0
  2 13  1  0
 13 14  2  0
 14 15  1  0
 15 16  2  0
 16 17  1  0
 17 18  2  0
 17 19  1  0
 19 20  1  0
 20 21  2  0
 20 22  2  0
 20 23  1  0
 12  4  1  0
 18 13  1  0
 12  7  1  0
 23 16  1  0
M  END
>  <ref_pdb>  (1005) 
A2513a

>  <subsites>  (1005) 
1 - Active Site

>  <HIPPO Compound ID>  (1005) 
11833

>  <energy_score>  (1005) 
-4.738727

>  <fragmenstein_mode>  (1005) 
expansion

>  <scratch_subdir>  (1005) 
/opt/xchem-fragalysis-2/maxwin/BulkDock/SCRATCH/512218/C92177-P134

>  <smiles>  (1005) 
O=C(Nc1c[nH]c2ccccc12)c1ccc2c(c1)NS(=O)(=O)C2

>  <alias>  (1005) 
C92177-P134

>  <ref_mols>  (1005) 
A3568a,A2513a

>  <inspiration_score>  (1005) 
None

>  <tags>  (1005) 
BulkDock Fragalysis export,fragmenstein_placed,openbind_a71ev2a_c1_knitwork_impure,openbind_a71ev2a_c1_scaffolds

>  <fragmenstein_outcome>  (1005) 
acceptable

>  <fragmenstein_error>  (1005) 


>  <distance_score>  (1005) 
0.933299

>  <inchikey>  (1005) 
KRQYBBCCQUVOQQ-UHFFFAOYSA-N

>  <name>  (1005) 
C92177-P134

>  <HIPPO Pose ID>  (1005) 
456880

>  <Energy>  (1005) 
46.713895

>  <exports>  (1005) 
['/opt/xchem-fragalysis-2/maxwin/BulkDock/OUTPUTS/openbind_a71ev2a_c1_knitwork_impure_165VXJF.sdf', '/opt/xchem-fragalysis-2/maxwin/BulkDock/OUTPUTS/openbind_a71ev2a_c1_knitwork_impure_1B07QS4.sdf', '/opt/xchem-fragalysis-2/maxwin/BulkDock/OUTPUTS/openbind_a71ev2a_c1_knitwork_impure_1B07X5R.sdf', '/opt/xchem-fragalysis-2/maxwin/openbind-hippo/a71ev2a/openbind_a71ev2a_c1_scaffold_products.sdf', '/opt/xchem-fragalysis-2/maxwin/openbind-hippo/a71ev2a/cycle_01/bulkdock/openbind_a71ev2a_c1_scaffold_products.sdf', '/opt/xchem-fragalysis-2/maxwin/openbind-hippo/a71ev2a/cycle_01/bulkdock/openbind_a71ev2a_c1_scaffolds.sdf']

>  <fragmenstein_runtime>  (1005) 
4.093979

$$$$
C7527-P465
     RDKit          3D

 15 15  0  0  0  0  0  0  0  0999 V2000
    6.3849   12.3278   24.1202 F   0  0  0  0  0  0  0  0  0  0  0  0
    6.5590   11.9998   25.4152 C   0  0  0  0  0  0  0  0  0  0  0  0
    5.4075   11.4848   25.8958 F   0  0  0  0  0  0  0  0  0  0  0  0
    6.7854   13.1254   26.1198 F   0  0  0  0  0  0  0  0  0  0  0  0
    7.6586   10.9623   25.5931 C   0  0  0  0  0  0  0  0  0  0  0  0
    8.7746   11.0504   24.7115 O   0  0  0  0  0  0  0  0  0  0  0  0
    9.8200   11.8959   25.1765 C   0  0  0  0  0  0  0  0  0  0  0  0
    9.5547   13.3857   24.9882 C   0  0  0  0  0  0  0  0  0  0  0  0
    9.3283   13.6733   23.5725 N   0  0  0  0  0  0  0  0  0  0  0  0
    9.3235   15.1096   23.3384 N   0  0  0  0  0  0  0  0  0  0  0  0
   10.7020   15.6392   23.3923 C   0  0  0  0  0  0  0  0  0  0  0  0
   11.6396   15.0978   22.3209 C   0  0  0  0  0  0  0  0  0  0  0  0
   11.0736   15.3664   20.9382 C   0  0  0  0  0  0  0  0  0  0  0  0
    9.6380   14.8754   20.8366 C   0  0  0  0  0  0  0  0  0  0  0  0
    8.7667   15.3837   21.9893 C   0  0  0  0  0  0  0  0  0  0  0  0
  1  2  1  0
  2  3  1  0
  2  4  1  0
  2  5  1  0
  5  6  1  0
  6  7  1  0
  7  8  1  0
  8  9  1  0
  9 10  1  0
 10 11  1  0
 11 12  1  0
 12 13  1  0
 13 14  1  0
 14 15  1  0
 15 10  1  0
M  END
>  <ref_pdb>  (1006) 
A4786a

>  <subsites>  (1006) 
1 - Active Site

>  <HIPPO Compound ID>  (1006) 
40856

>  <energy_score>  (1006) 
-20.404094

>  <fragmenstein_mode>  (1006) 
expansion

>  <scratch_subdir>  (1006) 
/opt/xchem-fragalysis-2/maxwin/BulkDock/SCRATCH/512218/C7527-P465

>  <smiles>  (1006) 
FC(F)(F)COCCNN1CCCCC1

>  <alias>  (1006) 
C7527-P465

>  <ref_mols>  (1006) 
A1445a,A4786a

>  <inspiration_score>  (1006) 
None

>  <tags>  (1006) 
BulkDock Fragalysis export,fragmenstein_placed,openbind_a71ev2a_c1_knitwork_impure,openbind_a71ev2a_c1_scaffolds

>  <fragmenstein_outcome>  (1006) 
acceptable

>  <fragmenstein_error>  (1006) 


>  <distance_score>  (1006) 
0.92295

>  <inchikey>  (1006) 
DFDDAHMVJZQNIS-UHFFFAOYSA-N

>  <name>  (1006) 
C7527-P465

>  <HIPPO Pose ID>  (1006) 
457326

>  <Energy>  (1006) 
107.04073

>  <exports>  (1006) 
['/opt/xchem-fragalysis-2/maxwin/BulkDock/OUTPUTS/openbind_a71ev2a_c1_knitwork_impure_165VXJF.sdf', '/opt/xchem-fragalysis-2/maxwin/BulkDock/OUTPUTS/openbind_a71ev2a_c1_knitwork_impure_1B07QS4.sdf', '/opt/xchem-fragalysis-2/maxwin/BulkDock/OUTPUTS/openbind_a71ev2a_c1_knitwork_impure_1B07X5R.sdf', '/opt/xchem-fragalysis-2/maxwin/openbind-hippo/a71ev2a/openbind_a71ev2a_c1_scaffold_products.sdf', '/opt/xchem-fragalysis-2/maxwin/openbind-hippo/a71ev2a/cycle_01/bulkdock/openbind_a71ev2a_c1_scaffold_products.sdf', '/opt/xchem-fragalysis-2/maxwin/openbind-hippo/a71ev2a/cycle_01/bulkdock/openbind_a71ev2a_c1_scaffolds.sdf']

>  <fragmenstein_runtime>  (1006) 
4.306707

$$$$
C1002-P336
     RDKit          3D

 20 22  0  0  0  0  0  0  0  0999 V2000
   30.4080    8.2021    1.2415 C   0  0  0  0  0  0  0  0  0  0  0  0
   30.1750    9.3366    1.5615 C   0  0  0  0  0  0  0  0  0  0  0  0
   29.9124   10.7299    1.9518 C   0  0  2  0  0  0  0  0  0  0  0  0
   28.5218   11.0270    1.7204 N   0  0  0  0  0  0  0  0  0  0  0  0
   27.6284   12.1630    2.2818 C   0  0  0  0  0  0  0  0  0  0  0  0
   27.8612   12.9849    3.0757 O   0  0  0  0  0  0  0  0  0  0  0  0
   26.2704   12.0463    1.5808 C   0  0  2  0  0  0  0  0  0  0  0  0
   26.3743   12.3676    0.0782 C   0  0  0  0  0  0  0  0  0  0  0  0
   25.0293   12.1434   -0.6147 C   0  0  0  0  0  0  0  0  0  0  0  0
   23.9297   12.7933    0.1341 C   0  0  0  0  0  0  0  0  0  0  0  0
   22.7346   13.1241   -0.2989 N   0  0  0  0  0  0  0  0  0  0  0  0
   22.0665   13.7278    0.7413 N   0  0  0  0  0  0  0  0  0  0  0  0
   22.8658   13.7482    1.7899 C   0  0  0  0  0  0  0  0  0  0  0  0
   22.5658   14.3378    3.1093 C   0  0  0  0  0  0  0  0  0  0  0  0
   24.0431   13.1419    1.4526 N   0  0  0  0  0  0  0  0  0  0  0  0
   25.2453   12.9838    2.2461 C   0  0  0  0  0  0  0  0  0  0  0  0
   30.7100   11.6935    1.0786 C   0  0  0  0  0  0  0  0  0  0  0  0
   30.7710   13.1859    1.5189 C   0  0  0  0  0  0  0  0  0  0  0  0
   32.2267   13.2015    1.0128 C   0  0  0  0  0  0  0  0  0  0  0  0
   32.2549   11.6829    1.2746 C   0  0  0  0  0  0  0  0  0  0  0  0
  1  2  3  0
  3  2  1  6
  3  4  1  0
  4  5  1  0
  5  6  2  0
  7  5  1  1
  7  8  1  0
  8  9  1  0
  9 10  1  0
 10 11  2  0
 11 12  1  0
 12 13  2  0
 13 14  1  0
 13 15  1  0
 15 16  1  0
  3 17  1  0
 17 18  1  0
 18 19  1  0
 19 20  1  0
 16  7  1  0
 20 17  1  0
 15 10  1  0
M  END
>  <ref_pdb>  (1007) 
A4214a

>  <subsites>  (1007) 
1 - Active Site,6 - A0486/A/147/1

>  <HIPPO Compound ID>  (1007) 
7141

>  <energy_score>  (1007) 
-18.526792

>  <fragmenstein_mode>  (1007) 
expansion

>  <scratch_subdir>  (1007) 
/opt/xchem-fragalysis-2/maxwin/BulkDock/SCRATCH/512218/C1002-P336

>  <smiles>  (1007) 
C#C[C@H](NC(=O)[C@@H]1CCc2nnc(C)n2C1)C1CCC1

>  <alias>  (1007) 
C1002-P336

>  <ref_mols>  (1007) 
A4214a,A0239a

>  <inspiration_score>  (1007) 
None

>  <tags>  (1007) 
BulkDock Fragalysis export,fragmenstein_placed,openbind_a71ev2a_c1_knitwork_impure,openbind_a71ev2a_c1_scaffolds

>  <fragmenstein_outcome>  (1007) 
acceptable

>  <fragmenstein_error>  (1007) 


>  <distance_score>  (1007) 
0.467221

>  <inchikey>  (1007) 
RPYFJMJVSOYEFT-UHFFFAOYSA-N

>  <name>  (1007) 
C1002-P336

>  <HIPPO Pose ID>  (1007) 
457561

>  <Energy>  (1007) 
-16.029821

>  <exports>  (1007) 
['/opt/xchem-fragalysis-2/maxwin/BulkDock/OUTPUTS/openbind_a71ev2a_c1_knitwork_impure_165VXJF.sdf', '/opt/xchem-fragalysis-2/maxwin/BulkDock/OUTPUTS/openbind_a71ev2a_c1_knitwork_impure_1B07QS4.sdf', '/opt/xchem-fragalysis-2/maxwin/BulkDock/OUTPUTS/openbind_a71ev2a_c1_knitwork_impure_1B07X5R.sdf', '/opt/xchem-fragalysis-2/maxwin/openbind-hippo/a71ev2a/openbind_a71ev2a_c1_scaffold_products.sdf', '/opt/xchem-fragalysis-2/maxwin/openbind-hippo/a71ev2a/cycle_01/bulkdock/openbind_a71ev2a_c1_scaffold_products.sdf', '/opt/xchem-fragalysis-2/maxwin/openbind-hippo/a71ev2a/cycle_01/bulkdock/openbind_a71ev2a_c1_scaffolds.sdf']

>  <fragmenstein_runtime>  (1007) 
18.353513

$$$$
C7480-P618
     RDKit          3D

 13 13  0  0  0  0  0  0  0  0999 V2000
    8.7460    9.5263   24.5501 C   0  0  0  0  0  0  0  0  0  0  0  0
    8.3798   10.9338   24.8843 C   0  0  0  0  0  0  0  0  0  0  0  0
    7.1602   11.1611   25.7313 C   0  0  0  0  0  0  0  0  0  0  0  0
    9.1500   11.9100   24.3800 C   0  0  0  0  0  0  0  0  0  0  0  0
    8.9806   13.3497   24.6959 C   0  0  0  0  0  0  0  0  0  0  0  0
    8.7005   13.7561   25.7517 O   0  0  0  0  0  0  0  0  0  0  0  0
    9.3498   14.1037   23.3968 N   0  0  0  0  0  0  0  0  0  0  0  0
    9.5338   15.4462   23.1660 N   0  0  0  0  0  0  0  0  0  0  0  0
   10.9011   15.8116   23.5480 C   0  0  0  0  0  0  0  0  0  0  0  0
   11.9559   15.2192   22.6188 C   0  0  0  0  0  0  0  0  0  0  0  0
   11.6983   15.6428   21.1807 C   0  0  0  0  0  0  0  0  0  0  0  0
   10.2727   15.3096   20.7616 C   0  0  0  0  0  0  0  0  0  0  0  0
    9.2478   15.8303   21.7731 C   0  0  0  0  0  0  0  0  0  0  0  0
  1  2  1  0
  2  3  1  0
  2  4  2  3
  4  5  1  0
  5  6  2  0
  5  7  1  0
  7  8  1  0
  8  9  1  0
  9 10  1  0
 10 11  1  0
 11 12  1  0
 12 13  1  0
 13  8  1  0
M  END
>  <ref_pdb>  (1008) 
A5425b

>  <subsites>  (1008) 
1 - Active Site

>  <HIPPO Compound ID>  (1008) 
1357

>  <energy_score>  (1008) 
-15.05567

>  <fragmenstein_mode>  (1008) 
expansion

>  <scratch_subdir>  (1008) 
/opt/xchem-fragalysis-2/maxwin/BulkDock/SCRATCH/512218/C7480-P618

>  <smiles>  (1008) 
CC(C)=CC(=O)NN1CCCCC1

>  <alias>  (1008) 
C7480-P618

>  <ref_mols>  (1008) 
A5425b,A0310a

>  <inspiration_score>  (1008) 
None

>  <tags>  (1008) 
BulkDock Fragalysis export,fragmenstein_placed,openbind_a71ev2a_c1_knitwork_impure,openbind_a71ev2a_c1_scaffolds

>  <fragmenstein_outcome>  (1008) 
acceptable

>  <fragmenstein_error>  (1008) 


>  <distance_score>  (1008) 
0.936594

>  <inchikey>  (1008) 
IBUVLDQWYDBITO-UHFFFAOYSA-N

>  <name>  (1008) 
C7480-P618

>  <HIPPO Pose ID>  (1008) 
457586

>  <Energy>  (1008) 
59.80987

>  <exports>  (1008) 
['/opt/xchem-fragalysis-2/maxwin/BulkDock/OUTPUTS/openbind_a71ev2a_c1_knitwork_impure_165VXJF.sdf', '/opt/xchem-fragalysis-2/maxwin/BulkDock/OUTPUTS/openbind_a71ev2a_c1_knitwork_impure_1B07QS4.sdf', '/opt/xchem-fragalysis-2/maxwin/BulkDock/OUTPUTS/openbind_a71ev2a_c1_knitwork_impure_1B07X5R.sdf', '/opt/xchem-fragalysis-2/maxwin/openbind-hippo/a71ev2a/openbind_a71ev2a_c1_scaffold_products.sdf', '/opt/xchem-fragalysis-2/maxwin/openbind-hippo/a71ev2a/cycle_01/bulkdock/openbind_a71ev2a_c1_scaffold_products.sdf', '/opt/xchem-fragalysis-2/maxwin/openbind-hippo/a71ev2a/cycle_01/bulkdock/openbind_a71ev2a_c1_scaffolds.sdf']

>  <fragmenstein_runtime>  (1008) 
3.159917

$$$$
C727-P557
     RDKit          3D

 12 13  0  0  0  0  0  0  0  0999 V2000
    9.2611   10.8847   23.7718 C   0  0  0  0  0  0  0  0  0  0  0  0
    9.7039   12.1416   23.3780 C   0  0  0  0  0  0  0  0  0  0  0  0
    9.1377   13.2743   23.9531 C   0  0  0  0  0  0  0  0  0  0  0  0
    9.5157   14.5764   23.6328 N   0  0  0  0  0  0  0  0  0  0  0  0
   10.8366   15.0064   24.1001 C   0  0  0  0  0  0  0  0  0  0  0  0
   11.9116   14.8433   23.0326 C   0  0  0  0  0  0  0  0  0  0  0  0
   11.5092   15.5228   21.7303 C   0  0  0  0  0  0  0  0  0  0  0  0
   10.1625   14.9927   21.2537 C   0  0  0  0  0  0  0  0  0  0  0  0
    9.0856   15.1138   22.3297 C   0  0  0  0  0  0  0  0  0  0  0  0
    8.1322   13.0786   24.9008 C   0  0  0  0  0  0  0  0  0  0  0  0
    7.7429   11.7877   25.2257 C   0  0  0  0  0  0  0  0  0  0  0  0
    8.2947   10.6812   24.6912 N   0  0  0  0  0  0  0  0  0  0  0  0
  1  2  2  0
  2  3  1  0
  3  4  1  0
  4  5  1  0
  5  6  1  0
  6  7  1  0
  7  8  1  0
  8  9  1  0
  3 10  2  0
 10 11  1  0
 11 12  2  0
 12  1  1  0
  9  4  1  0
M  END
>  <ref_pdb>  (1009) 
A5079a

>  <subsites>  (1009) 
1 - Active Site

>  <HIPPO Compound ID>  (1009) 
1814

>  <energy_score>  (1009) 
-19.079851

>  <fragmenstein_mode>  (1009) 
expansion

>  <scratch_subdir>  (1009) 
/opt/xchem-fragalysis-2/maxwin/BulkDock/SCRATCH/512218/C727-P557

>  <smiles>  (1009) 
c1cc(N2CCCCC2)ccn1

>  <alias>  (1009) 
C727-P557

>  <ref_mols>  (1009) 
A5079a,A2629a

>  <inspiration_score>  (1009) 
None

>  <tags>  (1009) 
BulkDock Fragalysis export,fragmenstein_placed,openbind_a71ev2a_c1_knitwork_impure,openbind_a71ev2a_c1_scaffolds

>  <fragmenstein_outcome>  (1009) 
acceptable

>  <fragmenstein_error>  (1009) 


>  <distance_score>  (1009) 
0.833551

>  <inchikey>  (1009) 
CFGUFSRARCDEJB-UHFFFAOYSA-N

>  <name>  (1009) 
C727-P557

>  <HIPPO Pose ID>  (1009) 
458177

>  <Energy>  (1009) 
18.271442

>  <exports>  (1009) 
['/opt/xchem-fragalysis-2/maxwin/BulkDock/OUTPUTS/openbind_a71ev2a_c1_knitwork_impure_165VXJF.sdf', '/opt/xchem-fragalysis-2/maxwin/BulkDock/OUTPUTS/openbind_a71ev2a_c1_knitwork_impure_1B07QS4.sdf', '/opt/xchem-fragalysis-2/maxwin/BulkDock/OUTPUTS/openbind_a71ev2a_c1_knitwork_impure_1B07X5R.sdf', '/opt/xchem-fragalysis-2/maxwin/openbind-hippo/a71ev2a/openbind_a71ev2a_c1_scaffold_products.sdf', '/opt/xchem-fragalysis-2/maxwin/openbind-hippo/a71ev2a/cycle_01/bulkdock/openbind_a71ev2a_c1_scaffold_products.sdf', '/opt/xchem-fragalysis-2/maxwin/openbind-hippo/a71ev2a/cycle_01/bulkdock/openbind_a71ev2a_c1_scaffolds.sdf']

>  <fragmenstein_runtime>  (1009) 
12.11478

$$$$
C2410-P302
     RDKit          3D

 14 14  0  0  0  0  0  0  0  0999 V2000
   11.7355   15.9150   22.3175 C   0  0  0  0  0  0  0  0  0  0  0  0
   10.8595   15.1133   23.2473 C   0  0  0  0  0  0  0  0  0  0  0  0
   11.4729   13.9215   23.4759 F   0  0  0  0  0  0  0  0  0  0  0  0
   10.7920   15.7553   24.4408 F   0  0  0  0  0  0  0  0  0  0  0  0
    9.4639   14.8998   22.6783 C   0  0  0  0  0  0  0  0  0  0  0  0
    8.7023   13.7381   23.3125 C   0  0  0  0  0  0  0  0  0  0  0  0
    8.4998   13.8551   24.8206 C   0  0  2  0  0  0  0  0  0  0  0  0
    9.7070   13.7739   25.4634 F   0  0  0  0  0  0  0  0  0  0  0  0
    7.6343   12.7376   25.4295 C   0  0  1  0  0  0  0  0  0  0  0  0
    6.2273   13.2250   25.7672 C   0  0  0  0  0  0  0  0  0  0  0  0
    5.5395   12.2221   26.6820 C   0  0  0  0  0  0  0  0  0  0  0  0
    5.6722   10.7907   26.1803 C   0  0  0  0  0  0  0  0  0  0  0  0
    6.9802   10.4322   25.4768 C   0  0  0  0  0  0  0  0  0  0  0  0
    7.5359   11.4933   24.6485 N   0  0  0  0  0  0  0  0  0  0  0  0
  1  2  1  0
  2  3  1  0
  2  4  1  0
  2  5  1  0
  5  6  1  0
  6  7  1  0
  7  8  1  1
  7  9  1  0
  9 10  1  6
 10 11  1  0
 11 12  1  0
 12 13  1  0
 13 14  1  0
 14  9  1  0
M  END
>  <ref_pdb>  (1010) 
A4319a

>  <subsites>  (1010) 
1 - Active Site

>  <HIPPO Compound ID>  (1010) 
540

>  <energy_score>  (1010) 
-36.248587

>  <fragmenstein_mode>  (1010) 
expansion

>  <scratch_subdir>  (1010) 
/opt/xchem-fragalysis-2/maxwin/BulkDock/SCRATCH/512218/C2410-P302

>  <smiles>  (1010) 
CC(F)(F)CC[C@H](F)[C@H]1CCCCN1

>  <alias>  (1010) 
C2410-P302

>  <ref_mols>  (1010) 
A1779a,A4319a

>  <inspiration_score>  (1010) 
None

>  <tags>  (1010) 
BulkDock Fragalysis export,fragmenstein_placed,openbind_a71ev2a_c1_knitwork_impure,openbind_a71ev2a_c1_scaffolds

>  <fragmenstein_outcome>  (1010) 
acceptable

>  <fragmenstein_error>  (1010) 


>  <distance_score>  (1010) 
0.917277

>  <inchikey>  (1010) 
GYLBIGBYLJSRMM-UHFFFAOYSA-N

>  <name>  (1010) 
C2410-P302

>  <HIPPO Pose ID>  (1010) 
458316

>  <Energy>  (1010) 
36.393957

>  <exports>  (1010) 
['/opt/xchem-fragalysis-2/maxwin/BulkDock/OUTPUTS/openbind_a71ev2a_c1_knitwork_impure_165VXJF.sdf', '/opt/xchem-fragalysis-2/maxwin/BulkDock/OUTPUTS/openbind_a71ev2a_c1_knitwork_impure_1B07QS4.sdf', '/opt/xchem-fragalysis-2/maxwin/BulkDock/OUTPUTS/openbind_a71ev2a_c1_knitwork_impure_1B07X5R.sdf', '/opt/xchem-fragalysis-2/maxwin/openbind-hippo/a71ev2a/openbind_a71ev2a_c1_scaffold_products.sdf', '/opt/xchem-fragalysis-2/maxwin/openbind-hippo/a71ev2a/cycle_01/bulkdock/openbind_a71ev2a_c1_scaffold_products.sdf', '/opt/xchem-fragalysis-2/maxwin/openbind-hippo/a71ev2a/cycle_01/bulkdock/openbind_a71ev2a_c1_scaffolds.sdf']

>  <fragmenstein_runtime>  (1010) 
1.24675

$$$$
C542-P467
     RDKit          3D

 19 22  0  0  0  0  0  0  0  0999 V2000
   27.1491   19.9823   21.6443 C   0  0  0  0  0  0  0  0  0  0  0  0
   28.2569   20.3478   20.8865 C   0  0  0  0  0  0  0  0  0  0  0  0
   28.1072   21.1043   19.7192 C   0  0  0  0  0  0  0  0  0  0  0  0
   26.8108   21.4821   19.3299 C   0  0  0  0  0  0  0  0  0  0  0  0
   26.3033   22.3944   17.9675 S   0  0  0  0  0  0  0  0  0  0  0  0
   24.6498   22.2798   18.4714 C   0  0  0  0  0  0  0  0  0  0  0  0
   23.6157   22.9282   17.8442 N   0  0  0  0  0  0  0  0  0  0  0  0
   23.6598   23.1599   16.3923 C   0  0  0  0  0  0  0  0  0  0  0  0
   22.5837   24.1889   15.9647 C   0  0  0  0  0  0  0  0  0  0  0  0
   21.2076   23.8302   16.4127 N   0  0  0  0  0  0  0  0  0  0  0  0
   20.2897   24.9328   16.0721 C   0  0  0  0  0  0  0  0  0  0  0  0
   20.0245   24.9667   14.5430 C   0  0  0  0  0  0  0  0  0  0  0  0
   18.5370   25.1898   14.8892 C   0  0  0  0  0  0  0  0  0  0  0  0
   18.8198   24.4533   16.2154 C   0  0  0  0  0  0  0  0  0  0  0  0
   21.2497   23.6772   17.8886 C   0  0  0  0  0  0  0  0  0  0  0  0
   22.2694   22.6141   18.3458 C   0  0  0  0  0  0  0  0  0  0  0  0
   24.4807   21.5786   19.5746 N   0  0  0  0  0  0  0  0  0  0  0  0
   25.6889   21.1272   20.0729 C   0  0  0  0  0  0  0  0  0  0  0  0
   25.8637   20.3666   21.2480 C   0  0  0  0  0  0  0  0  0  0  0  0
  1  2  2  0
  2  3  1  0
  3  4  2  0
  4  5  1  0
  5  6  1  0
  6  7  1  0
  7  8  1  0
  8  9  1  0
  9 10  1  0
 10 11  1  0
 11 12  1  0
 12 13  1  0
 13 14  1  0
 10 15  1  0
 15 16  1  0
  6 17  2  0
 17 18  1  0
 18 19  2  0
 19  1  1  0
 18  4  1  0
 16  7  1  0
 14 11  1  0
M  END
>  <ref_pdb>  (1011) 
A4794a

>  <subsites>  (1011) 
1 - Active Site,5 - A3181/A/202/1

>  <HIPPO Compound ID>  (1011) 
16846

>  <energy_score>  (1011) 
-78.844975

>  <fragmenstein_mode>  (1011) 
expansion

>  <scratch_subdir>  (1011) 
/opt/xchem-fragalysis-2/maxwin/BulkDock/SCRATCH/512218/C542-P467

>  <smiles>  (1011) 
c1ccc2sc(N3CCN(C4CCC4)CC3)nc2c1

>  <alias>  (1011) 
C542-P467

>  <ref_mols>  (1011) 
A0514b,A4794a

>  <inspiration_score>  (1011) 
None

>  <tags>  (1011) 
BulkDock Fragalysis export,fragmenstein_placed,openbind_a71ev2a_c1_knitwork_impure,openbind_a71ev2a_c1_scaffolds

>  <fragmenstein_outcome>  (1011) 
acceptable

>  <fragmenstein_error>  (1011) 


>  <distance_score>  (1011) 
0.482404

>  <inchikey>  (1011) 
VIUGNCAMDRTQJK-UHFFFAOYSA-N

>  <name>  (1011) 
C542-P467

>  <HIPPO Pose ID>  (1011) 
458348

>  <Energy>  (1011) 
74.512884

>  <exports>  (1011) 
['/opt/xchem-fragalysis-2/maxwin/BulkDock/OUTPUTS/openbind_a71ev2a_c1_knitwork_impure_165VXJF.sdf', '/opt/xchem-fragalysis-2/maxwin/BulkDock/OUTPUTS/openbind_a71ev2a_c1_knitwork_impure_1B07QS4.sdf', '/opt/xchem-fragalysis-2/maxwin/BulkDock/OUTPUTS/openbind_a71ev2a_c1_knitwork_impure_1B07X5R.sdf', '/opt/xchem-fragalysis-2/maxwin/openbind-hippo/a71ev2a/openbind_a71ev2a_c1_scaffold_products.sdf', '/opt/xchem-fragalysis-2/maxwin/openbind-hippo/a71ev2a/cycle_01/bulkdock/openbind_a71ev2a_c1_scaffold_products.sdf', '/opt/xchem-fragalysis-2/maxwin/openbind-hippo/a71ev2a/cycle_01/bulkdock/openbind_a71ev2a_c1_scaffolds.sdf']

>  <fragmenstein_runtime>  (1011) 
22.867765

$$$$
C15040-P153
     RDKit          3D

 19 19  0  0  0  0  0  0  0  0999 V2000
   10.9701   15.3484   24.7720 O   0  0  0  0  0  0  0  0  0  0  0  0
   10.9552   14.7473   23.7666 C   0  0  0  0  0  0  0  0  0  0  0  0
   12.1239   14.7890   22.8066 C   0  0  0  0  0  0  0  0  0  0  0  0
   11.9291   16.0454   21.5195 S   0  0  0  0  0  0  0  0  0  0  0  0
   10.5784   15.3392   20.4984 C   0  0  0  0  0  0  0  0  0  0  0  0
   10.5548   15.7906   19.0506 C   0  0  0  0  0  0  0  0  0  0  0  0
   11.5514   15.2121   18.3495 F   0  0  0  0  0  0  0  0  0  0  0  0
   10.6360   17.1197   18.9340 F   0  0  0  0  0  0  0  0  0  0  0  0
    9.3901   15.4353   18.4700 F   0  0  0  0  0  0  0  0  0  0  0  0
    9.8257   13.8827   23.1222 N   0  0  0  0  0  0  0  0  0  0  0  0
    8.2856   13.6353   23.5914 S   0  0  0  0  0  0  0  0  0  0  0  0
    7.5431   13.4109   22.3651 O   0  0  0  0  0  0  0  0  0  0  0  0
    7.9585   14.6606   24.5486 O   0  0  0  0  0  0  0  0  0  0  0  0
    8.3677   12.0789   24.4236 C   0  0  0  0  0  0  0  0  0  0  0  0
    9.0610   11.0194   23.8574 C   0  0  0  0  0  0  0  0  0  0  0  0
    8.7988    9.7631   24.3728 C   0  0  0  0  0  0  0  0  0  0  0  0
    7.8650    9.6397   25.3997 C   0  0  0  0  0  0  0  0  0  0  0  0
    7.2607   10.7671   25.9231 C   0  0  0  0  0  0  0  0  0  0  0  0
    7.5120   11.9960   25.4702 N   0  0  0  0  0  0  0  0  0  0  0  0
  1  2  2  0
  2  3  1  0
  3  4  1  0
  4  5  1  0
  5  6  1  0
  6  7  1  0
  6  8  1  0
  6  9  1  0
  2 10  1  0
 10 11  1  0
 11 12  2  0
 11 13  2  0
 11 14  1  0
 14 15  2  0
 15 16  1  0
 16 17  2  0
 17 18  1  0
 18 19  2  0
 19 14  1  0
M  END
>  <ref_pdb>  (1012) 
A3207a

>  <subsites>  (1012) 
1 - Active Site

>  <HIPPO Compound ID>  (1012) 
5949

>  <energy_score>  (1012) 
-22.598726

>  <fragmenstein_mode>  (1012) 
expansion

>  <scratch_subdir>  (1012) 
/opt/xchem-fragalysis-2/maxwin/BulkDock/SCRATCH/512218/C15040-P153

>  <smiles>  (1012) 
O=C(CSCC(F)(F)F)NS(=O)(=O)c1ccccn1

>  <alias>  (1012) 
C15040-P153

>  <ref_mols>  (1012) 
A3207a,A0719a

>  <inspiration_score>  (1012) 
None

>  <tags>  (1012) 
BulkDock Fragalysis export,fragmenstein_placed,openbind_a71ev2a_c1_knitwork_impure,openbind_a71ev2a_c1_scaffolds

>  <fragmenstein_outcome>  (1012) 
acceptable

>  <fragmenstein_error>  (1012) 


>  <distance_score>  (1012) 
0.938199

>  <inchikey>  (1012) 
JSOLCRWBOHDHLA-UHFFFAOYSA-N

>  <name>  (1012) 
C15040-P153

>  <HIPPO Pose ID>  (1012) 
458830

>  <Energy>  (1012) 
66.689908

>  <exports>  (1012) 
['/opt/xchem-fragalysis-2/maxwin/BulkDock/OUTPUTS/openbind_a71ev2a_c1_knitwork_impure_165VXJF.sdf', '/opt/xchem-fragalysis-2/maxwin/BulkDock/OUTPUTS/openbind_a71ev2a_c1_knitwork_impure_1B07QS4.sdf', '/opt/xchem-fragalysis-2/maxwin/BulkDock/OUTPUTS/openbind_a71ev2a_c1_knitwork_impure_1B07X5R.sdf', '/opt/xchem-fragalysis-2/maxwin/openbind-hippo/a71ev2a/openbind_a71ev2a_c1_scaffold_products.sdf', '/opt/xchem-fragalysis-2/maxwin/openbind-hippo/a71ev2a/cycle_01/bulkdock/openbind_a71ev2a_c1_scaffold_products.sdf', '/opt/xchem-fragalysis-2/maxwin/openbind-hippo/a71ev2a/cycle_01/bulkdock/openbind_a71ev2a_c1_scaffolds.sdf']

>  <fragmenstein_runtime>  (1012) 
6.881476

$$$$
C15045-P153
     RDKit          3D

 15 15  0  0  0  0  0  0  0  0999 V2000
   12.1565   14.8961   23.1533 C   0  0  0  0  0  0  0  0  0  0  0  0
   11.6694   15.5299   22.0805 C   0  0  0  0  0  0  0  0  0  0  0  0
   10.6594   14.9080   21.1652 C   0  0  0  0  0  0  0  0  0  0  0  0
    9.2666   15.5041   21.3531 C   0  0  0  0  0  0  0  0  0  0  0  0
    8.6987   15.3227   22.7594 C   0  0  0  0  0  0  0  0  0  0  0  0
    8.3068   13.8875   23.0721 C   0  0  0  0  0  0  0  0  0  0  0  0
    7.6265   13.2257   22.2836 O   0  0  0  0  0  0  0  0  0  0  0  0
    8.7203   13.3578   24.4535 C   0  0  1  0  0  0  0  0  0  0  0  0
    8.1116   14.1775   25.4527 O   0  0  0  0  0  0  0  0  0  0  0  0
    8.4092   11.8911   24.6933 C   0  0  0  0  0  0  0  0  0  0  0  0
    9.0920   10.8990   23.9761 C   0  0  0  0  0  0  0  0  0  0  0  0
    8.8046    9.5656   24.2332 C   0  0  0  0  0  0  0  0  0  0  0  0
    7.8879    9.1601   25.1416 N   0  0  0  0  0  0  0  0  0  0  0  0
    7.2258   10.1219   25.8091 C   0  0  0  0  0  0  0  0  0  0  0  0
    7.4518   11.4755   25.6277 C   0  0  0  0  0  0  0  0  0  0  0  0
  1  2  2  0
  2  3  1  0
  3  4  1  0
  4  5  1  0
  5  6  1  0
  6  7  2  0
  6  8  1  0
  8  9  1  1
  8 10  1  0
 10 11  2  0
 11 12  1  0
 12 13  2  0
 13 14  1  0
 14 15  2  0
 15 10  1  0
M  END
>  <ref_pdb>  (1013) 
A3207a

>  <subsites>  (1013) 
1 - Active Site

>  <HIPPO Compound ID>  (1013) 
35886

>  <energy_score>  (1013) 
-12.941485

>  <fragmenstein_mode>  (1013) 
expansion

>  <scratch_subdir>  (1013) 
/opt/xchem-fragalysis-2/maxwin/BulkDock/SCRATCH/512218/C15045-P153

>  <smiles>  (1013) 
C=CCCCC(=O)[C@@H](O)c1ccncc1

>  <alias>  (1013) 
C15045-P153

>  <ref_mols>  (1013) 
A3207a,A0719a

>  <inspiration_score>  (1013) 
None

>  <tags>  (1013) 
BulkDock Fragalysis export,fragmenstein_placed,openbind_a71ev2a_c1_knitwork_impure,openbind_a71ev2a_c1_scaffolds

>  <fragmenstein_outcome>  (1013) 
acceptable

>  <fragmenstein_error>  (1013) 


>  <distance_score>  (1013) 
0.666894

>  <inchikey>  (1013) 
AFJPCOIBOPEZRQ-UHFFFAOYSA-N

>  <name>  (1013) 
C15045-P153

>  <HIPPO Pose ID>  (1013) 
458835

>  <Energy>  (1013) 
60.38262

>  <exports>  (1013) 
['/opt/xchem-fragalysis-2/maxwin/BulkDock/OUTPUTS/openbind_a71ev2a_c1_knitwork_impure_165VXJF.sdf', '/opt/xchem-fragalysis-2/maxwin/BulkDock/OUTPUTS/openbind_a71ev2a_c1_knitwork_impure_1B07QS4.sdf', '/opt/xchem-fragalysis-2/maxwin/BulkDock/OUTPUTS/openbind_a71ev2a_c1_knitwork_impure_1B07X5R.sdf', '/opt/xchem-fragalysis-2/maxwin/openbind-hippo/a71ev2a/openbind_a71ev2a_c1_scaffold_products.sdf', '/opt/xchem-fragalysis-2/maxwin/openbind-hippo/a71ev2a/cycle_01/bulkdock/openbind_a71ev2a_c1_scaffold_products.sdf', '/opt/xchem-fragalysis-2/maxwin/openbind-hippo/a71ev2a/cycle_01/bulkdock/openbind_a71ev2a_c1_scaffolds.sdf']

>  <fragmenstein_runtime>  (1013) 
2.126862

$$$$
C15048-P153
     RDKit          3D

 16 16  0  0  0  0  0  0  0  0999 V2000
    7.7067   15.6628   26.6735 C   0  0  0  0  0  0  0  0  0  0  0  0
    8.0580   14.2074   26.4048 C   0  0  0  0  0  0  0  0  0  0  0  0
    7.5541   13.6562   25.0467 C   0  0  1  0  0  0  0  0  0  0  0  0
    8.1841   14.4446   23.9899 N   0  0  0  0  0  0  0  0  0  0  0  0
    7.5314   14.5586   22.4658 S   0  0  0  0  0  0  0  0  0  0  0  0
    8.5264   15.2701   21.7035 O   0  0  0  0  0  0  0  0  0  0  0  0
    7.0852   13.2511   22.0567 O   0  0  0  0  0  0  0  0  0  0  0  0
    6.2183   15.5508   22.6904 N   0  0  0  0  0  0  0  0  0  0  0  0
    6.4836   16.8268   23.3646 C   0  0  0  0  0  0  0  0  0  0  0  0
    4.9042   14.9695   22.9685 C   0  0  0  0  0  0  0  0  0  0  0  0
    7.7974   12.1471   25.0109 C   0  0  0  0  0  0  0  0  0  0  0  0
    6.9853   11.3438   25.8299 C   0  0  0  0  0  0  0  0  0  0  0  0
    7.1472    9.9713   25.8274 C   0  0  0  0  0  0  0  0  0  0  0  0
    8.0552    9.3376   25.0691 N   0  0  0  0  0  0  0  0  0  0  0  0
    8.8298   10.1074   24.2703 C   0  0  0  0  0  0  0  0  0  0  0  0
    8.7509   11.4972   24.2176 C   0  0  0  0  0  0  0  0  0  0  0  0
  1  2  1  0
  3  2  1  1
  3  4  1  0
  4  5  1  0
  5  6  2  0
  5  7  2  0
  5  8  1  0
  8  9  1  0
  8 10  1  0
  3 11  1  0
 11 12  2  0
 12 13  1  0
 13 14  2  0
 14 15  1  0
 15 16  2  0
 16 11  1  0
M  END
>  <ref_pdb>  (1014) 
A3207a

>  <subsites>  (1014) 
1 - Active Site

>  <HIPPO Compound ID>  (1014) 
532

>  <energy_score>  (1014) 
-33.371986

>  <fragmenstein_mode>  (1014) 
expansion

>  <scratch_subdir>  (1014) 
/opt/xchem-fragalysis-2/maxwin/BulkDock/SCRATCH/512218/C15048-P153

>  <smiles>  (1014) 
CC[C@@H](NS(=O)(=O)N(C)C)c1ccncc1

>  <alias>  (1014) 
C15048-P153

>  <ref_mols>  (1014) 
A3207a,A0719a

>  <inspiration_score>  (1014) 
None

>  <tags>  (1014) 
BulkDock Fragalysis export,fragmenstein_placed,openbind_a71ev2a_c1_knitwork_impure,openbind_a71ev2a_c1_scaffolds

>  <fragmenstein_outcome>  (1014) 
acceptable

>  <fragmenstein_error>  (1014) 


>  <distance_score>  (1014) 
0.768401

>  <inchikey>  (1014) 
SOLMNNBILPZOSX-UHFFFAOYSA-N

>  <name>  (1014) 
C15048-P153

>  <HIPPO Pose ID>  (1014) 
458837

>  <Energy>  (1014) 
-171.73563

>  <exports>  (1014) 
['/opt/xchem-fragalysis-2/maxwin/BulkDock/OUTPUTS/openbind_a71ev2a_c1_knitwork_impure_165VXJF.sdf', '/opt/xchem-fragalysis-2/maxwin/BulkDock/OUTPUTS/openbind_a71ev2a_c1_knitwork_impure_1B07QS4.sdf', '/opt/xchem-fragalysis-2/maxwin/BulkDock/OUTPUTS/openbind_a71ev2a_c1_knitwork_impure_1B07X5R.sdf', '/opt/xchem-fragalysis-2/maxwin/openbind-hippo/a71ev2a/openbind_a71ev2a_c1_scaffold_products.sdf', '/opt/xchem-fragalysis-2/maxwin/openbind-hippo/a71ev2a/cycle_01/bulkdock/openbind_a71ev2a_c1_scaffold_products.sdf', '/opt/xchem-fragalysis-2/maxwin/openbind-hippo/a71ev2a/cycle_01/bulkdock/openbind_a71ev2a_c1_scaffolds.sdf']

>  <fragmenstein_runtime>  (1014) 
9.834567

$$$$
C15067-P153
     RDKit          3D

 15 15  0  0  0  0  0  0  0  0999 V2000
   12.0224   15.0908   23.0574 C   0  0  0  0  0  0  0  0  0  0  0  0
   11.6738   15.6329   21.6788 C   0  0  0  0  0  0  0  0  0  0  0  0
   10.4470   14.9611   21.0654 C   0  0  0  0  0  0  0  0  0  0  0  0
    9.2290   15.6265   21.3820 O   0  0  0  0  0  0  0  0  0  0  0  0
    8.7089   15.4025   22.6729 C   0  0  0  0  0  0  0  0  0  0  0  0
    8.2388   13.9842   22.9896 C   0  0  0  0  0  0  0  0  0  0  0  0
    7.5647   13.3223   22.1945 O   0  0  0  0  0  0  0  0  0  0  0  0
    8.5855   13.4631   24.3863 C   0  0  1  0  0  0  0  0  0  0  0  0
    7.6933   14.0766   25.3118 O   0  0  0  0  0  0  0  0  0  0  0  0
    8.5633   11.9571   24.4824 C   0  0  0  0  0  0  0  0  0  0  0  0
    9.3743   11.1910   23.6349 C   0  0  0  0  0  0  0  0  0  0  0  0
    9.3478    9.8071   23.7092 C   0  0  0  0  0  0  0  0  0  0  0  0
    8.5313    9.2309   24.6562 C   0  0  0  0  0  0  0  0  0  0  0  0
    7.7348    9.9189   25.5030 N   0  0  0  0  0  0  0  0  0  0  0  0
    7.7658   11.2658   25.3896 C   0  0  0  0  0  0  0  0  0  0  0  0
  1  2  1  0
  2  3  1  0
  3  4  1  0
  4  5  1  0
  5  6  1  0
  6  7  2  0
  6  8  1  0
  8  9  1  1
  8 10  1  0
 10 11  2  0
 11 12  1  0
 12 13  2  0
 13 14  1  0
 14 15  2  0
 15 10  1  0
M  END
>  <ref_pdb>  (1015) 
A3207a

>  <subsites>  (1015) 
1 - Active Site

>  <HIPPO Compound ID>  (1015) 
15494

>  <energy_score>  (1015) 
-35.707089

>  <fragmenstein_mode>  (1015) 
expansion

>  <scratch_subdir>  (1015) 
/opt/xchem-fragalysis-2/maxwin/BulkDock/SCRATCH/512218/C15067-P153

>  <smiles>  (1015) 
CCCOCC(=O)[C@@H](O)c1cccnc1

>  <alias>  (1015) 
C15067-P153

>  <ref_mols>  (1015) 
A3207a,A0719a

>  <inspiration_score>  (1015) 
None

>  <tags>  (1015) 
BulkDock Fragalysis export,fragmenstein_placed,openbind_a71ev2a_c1_knitwork_impure,openbind_a71ev2a_c1_scaffolds

>  <fragmenstein_outcome>  (1015) 
acceptable

>  <fragmenstein_error>  (1015) 


>  <distance_score>  (1015) 
0.787606

>  <inchikey>  (1015) 
YLJPPWLVJABBLI-UHFFFAOYSA-N

>  <name>  (1015) 
C15067-P153

>  <HIPPO Pose ID>  (1015) 
458849

>  <Energy>  (1015) 
79.599568

>  <exports>  (1015) 
['/opt/xchem-fragalysis-2/maxwin/BulkDock/OUTPUTS/openbind_a71ev2a_c1_knitwork_impure_165VXJF.sdf', '/opt/xchem-fragalysis-2/maxwin/BulkDock/OUTPUTS/openbind_a71ev2a_c1_knitwork_impure_1B07QS4.sdf', '/opt/xchem-fragalysis-2/maxwin/BulkDock/OUTPUTS/openbind_a71ev2a_c1_knitwork_impure_1B07X5R.sdf', '/opt/xchem-fragalysis-2/maxwin/openbind-hippo/a71ev2a/openbind_a71ev2a_c1_scaffold_products.sdf', '/opt/xchem-fragalysis-2/maxwin/openbind-hippo/a71ev2a/cycle_01/bulkdock/openbind_a71ev2a_c1_scaffold_products.sdf', '/opt/xchem-fragalysis-2/maxwin/openbind-hippo/a71ev2a/cycle_01/bulkdock/openbind_a71ev2a_c1_scaffolds.sdf']

>  <fragmenstein_runtime>  (1015) 
2.098017

$$$$
C15070-P153
     RDKit          3D

 15 15  0  0  0  0  0  0  0  0999 V2000
   12.1594   14.6804   23.1147 C   0  0  0  0  0  0  0  0  0  0  0  0
   11.7843   15.6537   22.0111 C   0  0  0  0  0  0  0  0  0  0  0  0
   10.5506   15.2064   21.2086 C   0  0  2  0  0  0  0  0  0  0  0  0
   10.7300   15.6173   19.7372 C   0  0  0  0  0  0  0  0  0  0  0  0
    9.2404   15.8283   21.7357 C   0  0  0  0  0  0  0  0  0  0  0  0
    8.6586   15.3027   23.0574 C   0  0  2  0  0  0  0  0  0  0  0  0
    9.5070   15.5504   24.1571 O   0  0  0  0  0  0  0  0  0  0  0  0
    8.1201   13.8812   22.8978 C   0  0  0  0  0  0  0  0  0  0  0  0
    7.3261   13.5494   22.0156 O   0  0  0  0  0  0  0  0  0  0  0  0
    8.5070   12.8055   23.8104 C   0  0  0  0  0  0  0  0  0  0  0  0
    7.5878   12.3121   24.7373 C   0  0  0  0  0  0  0  0  0  0  0  0
    7.7272   11.0043   25.1958 C   0  0  0  0  0  0  0  0  0  0  0  0
    8.7694   10.2471   24.6905 C   0  0  0  0  0  0  0  0  0  0  0  0
    9.7141   10.7335   23.8590 N   0  0  0  0  0  0  0  0  0  0  0  0
    9.5594   12.0002   23.4215 C   0  0  0  0  0  0  0  0  0  0  0  0
  1  2  1  0
  2  3  1  0
  3  4  1  6
  3  5  1  0
  5  6  1  0
  6  7  1  1
  6  8  1  0
  8  9  2  0
  8 10  1  0
 10 11  2  0
 11 12  1  0
 12 13  2  0
 13 14  1  0
 14 15  2  0
 15 10  1  0
M  END
>  <ref_pdb>  (1016) 
A3207a

>  <subsites>  (1016) 
1 - Active Site

>  <HIPPO Compound ID>  (1016) 
15471

>  <energy_score>  (1016) 
-17.760465

>  <fragmenstein_mode>  (1016) 
expansion

>  <scratch_subdir>  (1016) 
/opt/xchem-fragalysis-2/maxwin/BulkDock/SCRATCH/512218/C15070-P153

>  <smiles>  (1016) 
CC[C@H](C)C[C@H](O)C(=O)c1cccnc1

>  <alias>  (1016) 
C15070-P153

>  <ref_mols>  (1016) 
A3207a,A0719a

>  <inspiration_score>  (1016) 
None

>  <tags>  (1016) 
BulkDock Fragalysis export,fragmenstein_placed,openbind_a71ev2a_c1_knitwork_impure,openbind_a71ev2a_c1_scaffolds

>  <fragmenstein_outcome>  (1016) 
acceptable

>  <fragmenstein_error>  (1016) 


>  <distance_score>  (1016) 
0.911186

>  <inchikey>  (1016) 
CPAZNKHVDOFCMV-UHFFFAOYSA-N

>  <name>  (1016) 
C15070-P153

>  <HIPPO Pose ID>  (1016) 
458851

>  <Energy>  (1016) 
81.448498

>  <exports>  (1016) 
['/opt/xchem-fragalysis-2/maxwin/BulkDock/OUTPUTS/openbind_a71ev2a_c1_knitwork_impure_165VXJF.sdf', '/opt/xchem-fragalysis-2/maxwin/BulkDock/OUTPUTS/openbind_a71ev2a_c1_knitwork_impure_1B07QS4.sdf', '/opt/xchem-fragalysis-2/maxwin/BulkDock/OUTPUTS/openbind_a71ev2a_c1_knitwork_impure_1B07X5R.sdf', '/opt/xchem-fragalysis-2/maxwin/openbind-hippo/a71ev2a/openbind_a71ev2a_c1_scaffold_products.sdf', '/opt/xchem-fragalysis-2/maxwin/openbind-hippo/a71ev2a/cycle_01/bulkdock/openbind_a71ev2a_c1_scaffold_products.sdf', '/opt/xchem-fragalysis-2/maxwin/openbind-hippo/a71ev2a/cycle_01/bulkdock/openbind_a71ev2a_c1_scaffolds.sdf']

>  <fragmenstein_runtime>  (1016) 
9.264458

$$$$
C8131-P153
     RDKit          3D

 13 13  0  0  0  0  0  0  0  0999 V2000
   11.7189   15.4682   22.7536 C   0  0  0  0  0  0  0  0  0  0  0  0
   10.5202   15.4043   22.7248 C   0  0  0  0  0  0  0  0  0  0  0  0
    9.0572   15.3189   22.6141 C   0  0  0  0  0  0  0  0  0  0  0  0
    8.4995   14.0082   23.1380 C   0  0  0  0  0  0  0  0  0  0  0  0
    7.6462   13.3896   22.4941 O   0  0  0  0  0  0  0  0  0  0  0  0
    8.9810   13.5754   24.5425 C   0  0  1  0  0  0  0  0  0  0  0  0
    8.3203   14.3079   25.5709 O   0  0  0  0  0  0  0  0  0  0  0  0
    8.8896   12.0725   24.8509 C   0  0  0  0  0  0  0  0  0  0  0  0
    9.4347   11.2049   23.7197 C   0  0  0  0  0  0  0  0  0  0  0  0
    9.3334    9.7080   23.9670 C   0  0  0  0  0  0  0  0  0  0  0  0
    8.0710    9.2855   24.5423 N   0  0  0  0  0  0  0  0  0  0  0  0
    7.5053   10.1097   25.5877 C   0  0  0  0  0  0  0  0  0  0  0  0
    7.5079   11.5981   25.2732 C   0  0  0  0  0  0  0  0  0  0  0  0
  1  2  3  0
  2  3  1  0
  3  4  1  0
  4  5  2  0
  4  6  1  0
  6  7  1  1
  6  8  1  0
  8  9  1  0
  9 10  1  0
 10 11  1  0
 11 12  1  0
 12 13  1  0
 13  8  1  0
M  END
>  <ref_pdb>  (1017) 
A3207a

>  <subsites>  (1017) 
1 - Active Site

>  <HIPPO Compound ID>  (1017) 
13067

>  <energy_score>  (1017) 
-25.665404

>  <fragmenstein_mode>  (1017) 
expansion

>  <scratch_subdir>  (1017) 
/opt/xchem-fragalysis-2/maxwin/BulkDock/SCRATCH/512218/C8131-P153

>  <smiles>  (1017) 
C#CCC(=O)[C@@H](O)C1CCNCC1

>  <alias>  (1017) 
C8131-P153

>  <ref_mols>  (1017) 
A3207a,A0719a

>  <inspiration_score>  (1017) 
None

>  <tags>  (1017) 
BulkDock Fragalysis export,fragmenstein_placed,openbind_a71ev2a_c1_knitwork_impure,openbind_a71ev2a_c1_scaffolds

>  <fragmenstein_outcome>  (1017) 
acceptable

>  <fragmenstein_error>  (1017) 


>  <distance_score>  (1017) 
0.792594

>  <inchikey>  (1017) 
DRDOJMCYICGXFL-UHFFFAOYSA-N

>  <name>  (1017) 
C8131-P153

>  <HIPPO Pose ID>  (1017) 
458853

>  <Energy>  (1017) 
46.788431

>  <exports>  (1017) 
['/opt/xchem-fragalysis-2/maxwin/BulkDock/OUTPUTS/openbind_a71ev2a_c1_knitwork_impure_165VXJF.sdf', '/opt/xchem-fragalysis-2/maxwin/BulkDock/OUTPUTS/openbind_a71ev2a_c1_knitwork_impure_1B07QS4.sdf', '/opt/xchem-fragalysis-2/maxwin/BulkDock/OUTPUTS/openbind_a71ev2a_c1_knitwork_impure_1B07X5R.sdf', '/opt/xchem-fragalysis-2/maxwin/openbind-hippo/a71ev2a/openbind_a71ev2a_c1_scaffold_products.sdf', '/opt/xchem-fragalysis-2/maxwin/openbind-hippo/a71ev2a/cycle_01/bulkdock/openbind_a71ev2a_c1_scaffold_products.sdf', '/opt/xchem-fragalysis-2/maxwin/openbind-hippo/a71ev2a/cycle_01/bulkdock/openbind_a71ev2a_c1_scaffolds.sdf']

>  <fragmenstein_runtime>  (1017) 
1.239707

$$$$
C8138-P153
     RDKit          3D

 15 15  0  0  0  0  0  0  0  0999 V2000
   11.9337   16.2270   21.6600 C   0  0  0  0  0  0  0  0  0  0  0  0
   11.9416   14.9727   22.5095 C   0  0  0  0  0  0  0  0  0  0  0  0
   10.7708   14.7886   23.4793 C   0  0  1  0  0  0  0  0  0  0  0  0
   10.9876   15.6105   24.7504 C   0  0  0  0  0  0  0  0  0  0  0  0
    9.4004   15.0680   22.8510 C   0  0  0  0  0  0  0  0  0  0  0  0
    8.4114   13.9534   23.1089 C   0  0  0  0  0  0  0  0  0  0  0  0
    7.6805   13.5347   22.2029 O   0  0  0  0  0  0  0  0  0  0  0  0
    8.2603   13.4222   24.5374 C   0  0  1  0  0  0  0  0  0  0  0  0
    7.2130   14.1535   25.1608 O   0  0  0  0  0  0  0  0  0  0  0  0
    7.9490   11.9254   24.4932 C   0  0  0  0  0  0  0  0  0  0  0  0
    9.1480   11.1374   23.9587 C   0  0  0  0  0  0  0  0  0  0  0  0
    8.9468    9.6338   24.0183 C   0  0  0  0  0  0  0  0  0  0  0  0
    8.3748    9.1823   25.2732 N   0  0  0  0  0  0  0  0  0  0  0  0
    7.2104    9.8856   25.7612 C   0  0  0  0  0  0  0  0  0  0  0  0
    7.4467   11.3822   25.8236 C   0  0  0  0  0  0  0  0  0  0  0  0
  1  2  1  0
  2  3  1  0
  3  4  1  1
  3  5  1  0
  5  6  1  0
  6  7  2  0
  6  8  1  0
  8  9  1  6
  8 10  1  0
 10 11  1  0
 11 12  1  0
 12 13  1  0
 13 14  1  0
 14 15  1  0
 15 10  1  0
M  END
>  <ref_pdb>  (1018) 
A3207a

>  <subsites>  (1018) 
1 - Active Site

>  <HIPPO Compound ID>  (1018) 
32616

>  <energy_score>  (1018) 
-36.317695

>  <fragmenstein_mode>  (1018) 
expansion

>  <scratch_subdir>  (1018) 
/opt/xchem-fragalysis-2/maxwin/BulkDock/SCRATCH/512218/C8138-P153

>  <smiles>  (1018) 
CC[C@@H](C)CC(=O)[C@@H](O)C1CCNCC1

>  <alias>  (1018) 
C8138-P153

>  <ref_mols>  (1018) 
A3207a,A0719a

>  <inspiration_score>  (1018) 
None

>  <tags>  (1018) 
BulkDock Fragalysis export,fragmenstein_placed,openbind_a71ev2a_c1_knitwork_impure,openbind_a71ev2a_c1_scaffolds

>  <fragmenstein_outcome>  (1018) 
acceptable

>  <fragmenstein_error>  (1018) 


>  <distance_score>  (1018) 
0.754986

>  <inchikey>  (1018) 
BIIVMCIDBUMVDU-UHFFFAOYSA-N

>  <name>  (1018) 
C8138-P153

>  <HIPPO Pose ID>  (1018) 
458856

>  <Energy>  (1018) 
36.55393

>  <exports>  (1018) 
['/opt/xchem-fragalysis-2/maxwin/BulkDock/OUTPUTS/openbind_a71ev2a_c1_knitwork_impure_165VXJF.sdf', '/opt/xchem-fragalysis-2/maxwin/BulkDock/OUTPUTS/openbind_a71ev2a_c1_knitwork_impure_1B07QS4.sdf', '/opt/xchem-fragalysis-2/maxwin/BulkDock/OUTPUTS/openbind_a71ev2a_c1_knitwork_impure_1B07X5R.sdf', '/opt/xchem-fragalysis-2/maxwin/openbind-hippo/a71ev2a/openbind_a71ev2a_c1_scaffold_products.sdf', '/opt/xchem-fragalysis-2/maxwin/openbind-hippo/a71ev2a/cycle_01/bulkdock/openbind_a71ev2a_c1_scaffold_products.sdf', '/opt/xchem-fragalysis-2/maxwin/openbind-hippo/a71ev2a/cycle_01/bulkdock/openbind_a71ev2a_c1_scaffolds.sdf']

>  <fragmenstein_runtime>  (1018) 
2.425303

$$$$
C8152-P153
     RDKit          3D

 14 14  0  0  0  0  0  0  0  0999 V2000
    8.2610    9.2299   25.0079 C   0  0  0  0  0  0  0  0  0  0  0  0
    9.1530    9.8317   23.9484 C   0  0  0  0  0  0  0  0  0  0  0  0
    9.4030   11.2405   24.0874 O   0  0  0  0  0  0  0  0  0  0  0  0
    8.4346   12.0688   24.5608 C   0  0  0  0  0  0  0  0  0  0  0  0
    7.3101   11.7449   24.9081 O   0  0  0  0  0  0  0  0  0  0  0  0
    8.9627   13.4896   24.6147 C   0  0  2  0  0  0  0  0  0  0  0  0
    8.1566   14.3161   25.4562 O   0  0  0  0  0  0  0  0  0  0  0  0
    9.0019   14.0172   23.1684 C   0  0  0  0  0  0  0  0  0  0  0  0
    9.4558   15.4111   23.0639 N   0  0  0  0  0  0  0  0  0  0  0  0
   10.8163   15.6293   23.5587 C   0  0  0  0  0  0  0  0  0  0  0  0
   11.9002   15.0445   22.6616 C   0  0  0  0  0  0  0  0  0  0  0  0
   11.7759   15.5858   21.2438 C   0  0  0  0  0  0  0  0  0  0  0  0
   10.3603   15.4026   20.7114 C   0  0  0  0  0  0  0  0  0  0  0  0
    9.3172   15.9382   21.6950 C   0  0  0  0  0  0  0  0  0  0  0  0
  1  2  1  0
  2  3  1  0
  3  4  1  0
  4  5  2  0
  4  6  1  0
  6  7  1  1
  6  8  1  0
  8  9  1  0
  9 10  1  0
 10 11  1  0
 11 12  1  0
 12 13  1  0
 13 14  1  0
 14  9  1  0
M  END
>  <ref_pdb>  (1019) 
A3207a

>  <subsites>  (1019) 
1 - Active Site

>  <HIPPO Compound ID>  (1019) 
7188

>  <energy_score>  (1019) 
-30.108623

>  <fragmenstein_mode>  (1019) 
expansion

>  <scratch_subdir>  (1019) 
/opt/xchem-fragalysis-2/maxwin/BulkDock/SCRATCH/512218/C8152-P153

>  <smiles>  (1019) 
CCOC(=O)[C@H](O)CN1CCCCC1

>  <alias>  (1019) 
C8152-P153

>  <ref_mols>  (1019) 
A3207a,A0719a

>  <inspiration_score>  (1019) 
None

>  <tags>  (1019) 
BulkDock Fragalysis export,fragmenstein_placed,openbind_a71ev2a_c1_knitwork_impure,openbind_a71ev2a_c1_scaffolds

>  <fragmenstein_outcome>  (1019) 
acceptable

>  <fragmenstein_error>  (1019) 


>  <distance_score>  (1019) 
0.911495

>  <inchikey>  (1019) 
GYBDNCZJKSYHSE-UHFFFAOYSA-N

>  <name>  (1019) 
C8152-P153

>  <HIPPO Pose ID>  (1019) 
458866

>  <Energy>  (1019) 
56.117272

>  <exports>  (1019) 
['/opt/xchem-fragalysis-2/maxwin/BulkDock/OUTPUTS/openbind_a71ev2a_c1_knitwork_impure_165VXJF.sdf', '/opt/xchem-fragalysis-2/maxwin/BulkDock/OUTPUTS/openbind_a71ev2a_c1_knitwork_impure_1B07QS4.sdf', '/opt/xchem-fragalysis-2/maxwin/BulkDock/OUTPUTS/openbind_a71ev2a_c1_knitwork_impure_1B07X5R.sdf', '/opt/xchem-fragalysis-2/maxwin/openbind-hippo/a71ev2a/openbind_a71ev2a_c1_scaffold_products.sdf', '/opt/xchem-fragalysis-2/maxwin/openbind-hippo/a71ev2a/cycle_01/bulkdock/openbind_a71ev2a_c1_scaffold_products.sdf', '/opt/xchem-fragalysis-2/maxwin/openbind-hippo/a71ev2a/cycle_01/bulkdock/openbind_a71ev2a_c1_scaffolds.sdf']

>  <fragmenstein_runtime>  (1019) 
3.729038

$$$$
C8161-P153
     RDKit          3D

 17 17  0  0  0  0  0  0  0  0999 V2000
    7.3641   15.2539   26.1635 C   0  0  0  0  0  0  0  0  0  0  0  0
    8.4332   15.4818   25.0895 C   0  0  0  0  0  0  0  0  0  0  0  0
    8.6291   14.3529   24.0259 C   0  0  2  0  0  0  0  0  0  0  0  0
    7.2407   14.0875   23.3854 C   0  0  0  0  0  0  0  0  0  0  0  0
    9.1159   13.0508   24.7738 C   0  0  2  0  0  0  0  0  0  0  0  0
   10.5099   13.1077   25.1253 O   0  0  0  0  0  0  0  0  0  0  0  0
    8.9099   11.7796   23.9636 C   0  0  0  0  0  0  0  0  0  0  0  0
    7.6946   11.1665   24.3956 O   0  0  0  0  0  0  0  0  0  0  0  0
    7.9215   10.1384   25.3462 C   0  0  0  0  0  0  0  0  0  0  0  0
    8.5603    8.9629   24.6252 C   0  0  0  0  0  0  0  0  0  0  0  0
    6.6098    9.7987   26.0391 C   0  0  0  0  0  0  0  0  0  0  0  0
    9.6734   14.6868   22.9943 N   0  0  0  0  0  0  0  0  0  0  0  0
   10.7974   15.5121   23.4772 C   0  0  0  0  0  0  0  0  0  0  0  0
   11.9600   15.3497   22.5095 C   0  0  0  0  0  0  0  0  0  0  0  0
   11.5833   15.9146   21.1559 C   0  0  0  0  0  0  0  0  0  0  0  0
   10.2880   15.2978   20.6591 C   0  0  0  0  0  0  0  0  0  0  0  0
    9.1879   15.2821   21.7285 C   0  0  0  0  0  0  0  0  0  0  0  0
  1  2  1  0
  2  3  1  0
  3  4  1  6
  3  5  1  0
  5  6  1  6
  5  7  1  0
  7  8  1  0
  8  9  1  0
  9 10  1  0
  9 11  1  0
  3 12  1  0
 12 13  1  0
 13 14  1  0
 14 15  1  0
 15 16  1  0
 16 17  1  0
 17 12  1  0
M  END
>  <ref_pdb>  (1020) 
A3207a

>  <subsites>  (1020) 
1 - Active Site

>  <HIPPO Compound ID>  (1020) 
11631

>  <energy_score>  (1020) 
-50.990429

>  <fragmenstein_mode>  (1020) 
expansion

>  <scratch_subdir>  (1020) 
/opt/xchem-fragalysis-2/maxwin/BulkDock/SCRATCH/512218/C8161-P153

>  <smiles>  (1020) 
CC[C@](C)([C@H](O)COC(C)C)N1CCCCC1

>  <alias>  (1020) 
C8161-P153

>  <ref_mols>  (1020) 
A3207a,A0719a

>  <inspiration_score>  (1020) 
None

>  <tags>  (1020) 
BulkDock Fragalysis export,fragmenstein_placed,openbind_a71ev2a_c1_knitwork_impure,openbind_a71ev2a_c1_scaffolds

>  <fragmenstein_outcome>  (1020) 
acceptable

>  <fragmenstein_error>  (1020) 


>  <distance_score>  (1020) 
0.937124

>  <inchikey>  (1020) 
QVLGSSQYZVYUGJ-UHFFFAOYSA-N

>  <name>  (1020) 
C8161-P153

>  <HIPPO Pose ID>  (1020) 
458873

>  <Energy>  (1020) 
78.312025

>  <exports>  (1020) 
['/opt/xchem-fragalysis-2/maxwin/BulkDock/OUTPUTS/openbind_a71ev2a_c1_knitwork_impure_165VXJF.sdf', '/opt/xchem-fragalysis-2/maxwin/BulkDock/OUTPUTS/openbind_a71ev2a_c1_knitwork_impure_1B07QS4.sdf', '/opt/xchem-fragalysis-2/maxwin/BulkDock/OUTPUTS/openbind_a71ev2a_c1_knitwork_impure_1B07X5R.sdf', '/opt/xchem-fragalysis-2/maxwin/openbind-hippo/a71ev2a/openbind_a71ev2a_c1_scaffold_products.sdf', '/opt/xchem-fragalysis-2/maxwin/openbind-hippo/a71ev2a/cycle_01/bulkdock/openbind_a71ev2a_c1_scaffold_products.sdf', '/opt/xchem-fragalysis-2/maxwin/openbind-hippo/a71ev2a/cycle_01/bulkdock/openbind_a71ev2a_c1_scaffolds.sdf']

>  <fragmenstein_runtime>  (1020) 
10.846273

$$$$
C8173-P153
     RDKit          3D

 17 17  0  0  0  0  0  0  0  0999 V2000
    7.8253   13.3831   22.4149 O   0  0  0  0  0  0  0  0  0  0  0  0
    8.5720   14.0255   23.0447 C   0  0  0  0  0  0  0  0  0  0  0  0
    9.3937   15.2893   22.6538 N   0  0  0  0  0  0  0  0  0  0  0  0
    9.5338   15.9574   21.3863 C   0  0  0  0  0  0  0  0  0  0  0  0
   10.4820   15.1416   20.5271 C   0  0  0  0  0  0  0  0  0  0  0  0
   10.5080   15.6206   19.1059 C   0  0  0  0  0  0  0  0  0  0  0  0
   11.3874   14.8954   18.3842 F   0  0  0  0  0  0  0  0  0  0  0  0
   10.8722   16.9091   19.0475 F   0  0  0  0  0  0  0  0  0  0  0  0
    9.3044   15.5322   18.5153 F   0  0  0  0  0  0  0  0  0  0  0  0
    9.0178   13.6745   24.4786 C   0  0  1  0  0  0  0  0  0  0  0  0
    8.4192   14.4872   25.3977 F   0  0  0  0  0  0  0  0  0  0  0  0
    8.8217   12.2147   24.8975 C   0  0  0  0  0  0  0  0  0  0  0  0
    9.4759   11.2241   23.9272 C   0  0  0  0  0  0  0  0  0  0  0  0
    9.0031    9.7801   24.0862 C   0  0  0  0  0  0  0  0  0  0  0  0
    8.3063    9.5169   25.3332 N   0  0  0  0  0  0  0  0  0  0  0  0
    7.2226   10.4198   25.6734 C   0  0  0  0  0  0  0  0  0  0  0  0
    7.3751   11.8417   25.1457 C   0  0  0  0  0  0  0  0  0  0  0  0
  1  2  2  0
  2  3  1  0
  3  4  1  0
  4  5  1  0
  5  6  1  0
  6  7  1  0
  6  8  1  0
  6  9  1  0
  2 10  1  0
 10 11  1  1
 10 12  1  0
 12 13  1  0
 13 14  1  0
 14 15  1  0
 15 16  1  0
 16 17  1  0
 17 12  1  0
M  END
>  <ref_pdb>  (1021) 
A3207a

>  <subsites>  (1021) 
1 - Active Site

>  <HIPPO Compound ID>  (1021) 
10551

>  <energy_score>  (1021) 
-2.696579

>  <fragmenstein_mode>  (1021) 
expansion

>  <scratch_subdir>  (1021) 
/opt/xchem-fragalysis-2/maxwin/BulkDock/SCRATCH/512218/C8173-P153

>  <smiles>  (1021) 
O=C(NCCC(F)(F)F)[C@@H](F)C1CCNCC1

>  <alias>  (1021) 
C8173-P153

>  <ref_mols>  (1021) 
A3207a,A0719a

>  <inspiration_score>  (1021) 
None

>  <tags>  (1021) 
BulkDock Fragalysis export,fragmenstein_placed,openbind_a71ev2a_c1_knitwork_impure,openbind_a71ev2a_c1_scaffolds

>  <fragmenstein_outcome>  (1021) 
acceptable

>  <fragmenstein_error>  (1021) 


>  <distance_score>  (1021) 
0.831821

>  <inchikey>  (1021) 
CKCGJIQEJLLOHK-UHFFFAOYSA-N

>  <name>  (1021) 
C8173-P153

>  <HIPPO Pose ID>  (1021) 
458882

>  <Energy>  (1021) 
30.631216

>  <exports>  (1021) 
['/opt/xchem-fragalysis-2/maxwin/BulkDock/OUTPUTS/openbind_a71ev2a_c1_knitwork_impure_165VXJF.sdf', '/opt/xchem-fragalysis-2/maxwin/BulkDock/OUTPUTS/openbind_a71ev2a_c1_knitwork_impure_1B07QS4.sdf', '/opt/xchem-fragalysis-2/maxwin/BulkDock/OUTPUTS/openbind_a71ev2a_c1_knitwork_impure_1B07X5R.sdf', '/opt/xchem-fragalysis-2/maxwin/openbind-hippo/a71ev2a/openbind_a71ev2a_c1_scaffold_products.sdf', '/opt/xchem-fragalysis-2/maxwin/openbind-hippo/a71ev2a/cycle_01/bulkdock/openbind_a71ev2a_c1_scaffold_products.sdf', '/opt/xchem-fragalysis-2/maxwin/openbind-hippo/a71ev2a/cycle_01/bulkdock/openbind_a71ev2a_c1_scaffolds.sdf']

>  <fragmenstein_runtime>  (1021) 
3.488881

$$$$
C8176-P153
     RDKit          3D

 15 15  0  0  0  0  0  0  0  0999 V2000
    7.4276   14.0981   25.0955 C   0  0  0  0  0  0  0  0  0  0  0  0
    8.6238   13.4028   24.4342 C   0  0  2  0  0  0  0  0  0  0  0  0
    9.7529   13.6422   25.2712 O   0  0  0  0  0  0  0  0  0  0  0  0
    8.7135   13.9864   22.9999 C   0  0  0  0  0  0  0  0  0  0  0  0
    7.9282   13.5983   22.1239 O   0  0  0  0  0  0  0  0  0  0  0  0
    9.7405   15.0726   22.7615 C   0  0  0  0  0  0  0  0  0  0  0  0
    9.8899   15.8720   23.8591 F   0  0  0  0  0  0  0  0  0  0  0  0
    9.4053   15.8880   21.7282 F   0  0  0  0  0  0  0  0  0  0  0  0
   11.4493   14.2447   22.3857 Br  0  0  0  0  0  0  0  0  0  0  0  0
    8.4223   11.8599   24.2909 C   0  0  1  0  0  0  0  0  0  0  0  0
    9.6753   11.2101   23.6918 C   0  0  0  0  0  0  0  0  0  0  0  0
    9.7522    9.6972   23.8030 C   0  0  0  0  0  0  0  0  0  0  0  0
    8.5505    9.0404   24.4190 C   0  0  0  0  0  0  0  0  0  0  0  0
    7.8327    9.7188   25.4915 N   0  0  0  0  0  0  0  0  0  0  0  0
    8.0238   11.1594   25.5782 C   0  0  0  0  0  0  0  0  0  0  0  0
  2  1  1  1
  2  3  1  0
  2  4  1  0
  4  5  2  0
  4  6  1  0
  6  7  1  0
  6  8  1  0
  6  9  1  0
  2 10  1  0
 10 11  1  1
 11 12  1  0
 12 13  1  0
 13 14  1  0
 14 15  1  0
 15 10  1  0
M  END
>  <ref_pdb>  (1022) 
A3207a

>  <subsites>  (1022) 
1 - Active Site

>  <HIPPO Compound ID>  (1022) 
91922

>  <energy_score>  (1022) 
-22.59051

>  <fragmenstein_mode>  (1022) 
expansion

>  <scratch_subdir>  (1022) 
/opt/xchem-fragalysis-2/maxwin/BulkDock/SCRATCH/512218/C8176-P153

>  <smiles>  (1022) 
C[C@](O)(C(=O)C(F)(F)Br)[C@H]1CCCNC1

>  <alias>  (1022) 
C8176-P153

>  <ref_mols>  (1022) 
A3207a,A0719a

>  <inspiration_score>  (1022) 
None

>  <tags>  (1022) 
BulkDock Fragalysis export,fragmenstein_placed,openbind_a71ev2a_c1_knitwork_impure,openbind_a71ev2a_c1_scaffolds

>  <fragmenstein_outcome>  (1022) 
acceptable

>  <fragmenstein_error>  (1022) 


>  <distance_score>  (1022) 
0.681917

>  <inchikey>  (1022) 
VKCFWKQFXUVIIM-UHFFFAOYSA-N

>  <name>  (1022) 
C8176-P153

>  <HIPPO Pose ID>  (1022) 
458885

>  <Energy>  (1022) 
80.792941

>  <exports>  (1022) 
['/opt/xchem-fragalysis-2/maxwin/BulkDock/OUTPUTS/openbind_a71ev2a_c1_knitwork_impure_165VXJF.sdf', '/opt/xchem-fragalysis-2/maxwin/BulkDock/OUTPUTS/openbind_a71ev2a_c1_knitwork_impure_1B07QS4.sdf', '/opt/xchem-fragalysis-2/maxwin/BulkDock/OUTPUTS/openbind_a71ev2a_c1_knitwork_impure_1B07X5R.sdf', '/opt/xchem-fragalysis-2/maxwin/openbind-hippo/a71ev2a/openbind_a71ev2a_c1_scaffold_products.sdf', '/opt/xchem-fragalysis-2/maxwin/openbind-hippo/a71ev2a/cycle_01/bulkdock/openbind_a71ev2a_c1_scaffold_products.sdf', '/opt/xchem-fragalysis-2/maxwin/openbind-hippo/a71ev2a/cycle_01/bulkdock/openbind_a71ev2a_c1_scaffolds.sdf']

>  <fragmenstein_runtime>  (1022) 
1.233607

$$$$
C2758-P200
     RDKit          3D

 21 22  0  0  0  0  0  0  0  0999 V2000
    6.9623   14.7621   22.9239 C   0  0  0  0  0  0  0  0  0  0  0  0
    5.9547   15.0766   21.9282 N   0  0  0  0  0  0  0  0  0  0  0  0
    4.6078   14.7534   22.3971 C   0  0  0  0  0  0  0  0  0  0  0  0
    3.6581   14.3793   21.2472 C   0  0  0  0  0  0  0  0  0  0  0  0
    2.8410   15.4855   20.8403 O   0  0  0  0  0  0  0  0  0  0  0  0
    1.6820   15.1590   20.0631 C   0  0  0  0  0  0  0  0  0  0  0  0
    0.6210   14.4776   20.9556 C   0  0  0  0  0  0  0  0  0  0  0  0
   -0.4078   13.6707   20.3168 N   0  0  0  0  0  0  0  0  0  0  0  0
    0.0440   12.7172   19.2948 C   0  0  1  0  0  0  0  0  0  0  0  0
   -0.4488   13.1540   17.9228 C   0  0  0  0  0  0  0  0  0  0  0  0
   -0.5108   14.4768   17.4849 C   0  0  0  0  0  0  0  0  0  0  0  0
   -1.0263   14.7878   16.2269 C   0  0  0  0  0  0  0  0  0  0  0  0
   -1.4753   13.7571   15.4250 C   0  0  0  0  0  0  0  0  0  0  0  0
   -1.4478   12.4642   15.7980 N   0  0  0  0  0  0  0  0  0  0  0  0
   -0.9466   12.2034   17.0301 C   0  0  0  0  0  0  0  0  0  0  0  0
    1.5138   12.2137   19.4250 C   0  0  0  0  0  0  0  0  0  0  0  0
    2.1903   11.6958   18.1727 C   0  0  0  0  0  0  0  0  0  0  0  0
    3.6967   11.6096   18.4376 C   0  0  0  0  0  0  0  0  0  0  0  0
    4.0270   11.2384   19.7836 O   0  0  0  0  0  0  0  0  0  0  0  0
    3.0248   10.4326   20.3838 C   0  0  0  0  0  0  0  0  0  0  0  0
    1.7653   11.2684   20.6080 C   0  0  0  0  0  0  0  0  0  0  0  0
  1  2  1  0
  2  3  1  0
  3  4  1  0
  4  5  1  0
  5  6  1  0
  6  7  1  0
  7  8  1  0
  9  8  1  1
  9 10  1  0
 10 11  2  0
 11 12  1  0
 12 13  2  0
 13 14  1  0
 14 15  2  0
  9 16  1  0
 16 17  1  0
 17 18  1  0
 18 19  1  0
 19 20  1  0
 20 21  1  0
 15 10  1  0
 21 16  1  0
M  END
>  <ref_pdb>  (1023) 
A3623a

>  <subsites>  (1023) 
1 - Active Site

>  <HIPPO Compound ID>  (1023) 
43172

>  <energy_score>  (1023) 
-9.939152

>  <fragmenstein_mode>  (1023) 
expansion

>  <scratch_subdir>  (1023) 
/opt/xchem-fragalysis-2/maxwin/BulkDock/SCRATCH/512218/C2758-P200

>  <smiles>  (1023) 
CNCCOCCN[C@@H](c1cccnc1)C1CCOCC1

>  <alias>  (1023) 
C2758-P200

>  <ref_mols>  (1023) 
A0473a,A3623a

>  <inspiration_score>  (1023) 
None

>  <tags>  (1023) 
BulkDock Fragalysis export,fragmenstein_placed,openbind_a71ev2a_c1_knitwork_impure,openbind_a71ev2a_c1_scaffolds

>  <fragmenstein_outcome>  (1023) 
acceptable

>  <fragmenstein_error>  (1023) 


>  <distance_score>  (1023) 
0.974797

>  <inchikey>  (1023) 
ZNJBUCCMBIUDOR-UHFFFAOYSA-N

>  <name>  (1023) 
C2758-P200

>  <HIPPO Pose ID>  (1023) 
459207

>  <Energy>  (1023) 
110.581488

>  <exports>  (1023) 
['/opt/xchem-fragalysis-2/maxwin/BulkDock/OUTPUTS/openbind_a71ev2a_c1_knitwork_impure_165VXJF.sdf', '/opt/xchem-fragalysis-2/maxwin/BulkDock/OUTPUTS/openbind_a71ev2a_c1_knitwork_impure_1B07QS4.sdf', '/opt/xchem-fragalysis-2/maxwin/BulkDock/OUTPUTS/openbind_a71ev2a_c1_knitwork_impure_1B07X5R.sdf', '/opt/xchem-fragalysis-2/maxwin/openbind-hippo/a71ev2a/openbind_a71ev2a_c1_scaffold_products.sdf', '/opt/xchem-fragalysis-2/maxwin/openbind-hippo/a71ev2a/cycle_01/bulkdock/openbind_a71ev2a_c1_scaffold_products.sdf', '/opt/xchem-fragalysis-2/maxwin/openbind-hippo/a71ev2a/cycle_01/bulkdock/openbind_a71ev2a_c1_scaffolds.sdf']

>  <fragmenstein_runtime>  (1023) 
4.195117

$$$$
C37375-P551
     RDKit          3D

 21 23  0  0  0  0  0  0  0  0999 V2000
   10.4555   15.0415   21.7001 C   0  0  0  0  0  0  0  0  0  0  0  0
   10.1432   15.0614   23.1887 C   0  0  0  0  0  0  0  0  0  0  0  0
    8.6720   14.7274   23.4566 C   0  0  0  0  0  0  0  0  0  0  0  0
    8.4040   13.3443   23.9921 C   0  0  0  0  0  0  0  0  0  0  0  0
    7.5090   13.1329   24.9703 C   0  0  0  0  0  0  0  0  0  0  0  0
    7.2570   11.8030   25.4895 C   0  0  0  0  0  0  0  0  0  0  0  0
    6.4071   11.6750   26.7370 C   0  0  0  0  0  0  0  0  0  0  0  0
    6.4565   12.5076   27.5520 O   0  0  0  0  0  0  0  0  0  0  0  0
    5.6564   10.3286   26.7283 N   0  0  0  0  0  0  0  0  0  0  0  0
    4.8845    9.6794   27.7596 C   0  0  0  0  0  0  0  0  0  0  0  0
    4.0452   10.6340   28.5964 C   0  0  0  0  0  0  0  0  0  0  0  0
    3.1536    9.8599   29.5309 C   0  0  1  0  0  0  0  0  0  0  0  0
    1.8910    9.0627   29.0102 C   0  0  0  0  0  0  0  0  0  0  0  0
    1.5974    9.1220   30.5505 C   0  0  1  0  0  0  0  0  0  0  0  0
    2.7924    8.4057   31.1982 C   0  0  0  0  0  0  0  0  0  0  0  0
    3.8713    8.9693   30.4321 O   0  0  0  0  0  0  0  0  0  0  0  0
    2.0701   10.6104   30.4014 C   0  0  0  0  0  0  0  0  0  0  0  0
    7.9316   10.7590   24.9799 C   0  0  0  0  0  0  0  0  0  0  0  0
    8.9135   10.9742   23.8917 C   0  0  0  0  0  0  0  0  0  0  0  0
    9.5392   10.0325   23.4272 O   0  0  0  0  0  0  0  0  0  0  0  0
    9.0826   12.2672   23.4690 N   0  0  0  0  0  0  0  0  0  0  0  0
  1  2  1  0
  2  3  1  0
  3  4  1  0
  4  5  2  0
  5  6  1  0
  6  7  1  0
  7  8  2  0
  7  9  1  0
  9 10  1  0
 10 11  1  0
 12 11  1  6
 12 13  1  0
 14 13  1  6
 14 15  1  0
 15 16  1  0
 14 17  1  0
  6 18  2  0
 18 19  1  0
 19 20  2  0
 19 21  1  0
 21  4  1  0
 16 12  1  0
 17 12  1  0
M  END
>  <ref_pdb>  (1024) 
A5036b

>  <subsites>  (1024) 
1 - Active Site,4 - A0525/A/246/1

>  <HIPPO Compound ID>  (1024) 
17988

>  <energy_score>  (1024) 
-18.721651

>  <fragmenstein_mode>  (1024) 
expansion

>  <scratch_subdir>  (1024) 
/opt/xchem-fragalysis-2/maxwin/BulkDock/SCRATCH/512218/C37375-P551

>  <smiles>  (1024) 
CCCc1cc(C(=O)NCC[C@]23C[C@H](CO2)C3)cc(=O)[nH]1

>  <alias>  (1024) 
C37375-P551

>  <ref_mols>  (1024) 
A0525a,A5036b

>  <inspiration_score>  (1024) 
None

>  <tags>  (1024) 
BulkDock Fragalysis export,fragmenstein_placed,openbind_a71ev2a_c1_knitwork_impure,openbind_a71ev2a_c1_scaffolds

>  <fragmenstein_outcome>  (1024) 
acceptable

>  <fragmenstein_error>  (1024) 


>  <distance_score>  (1024) 
0.97508

>  <inchikey>  (1024) 
YDXIBDJDTVMVDS-UHFFFAOYSA-N

>  <name>  (1024) 
C37375-P551

>  <HIPPO Pose ID>  (1024) 
459533

>  <Energy>  (1024) 
16.175047

>  <exports>  (1024) 
['/opt/xchem-fragalysis-2/maxwin/BulkDock/OUTPUTS/openbind_a71ev2a_c1_knitwork_impure_165VXJF.sdf', '/opt/xchem-fragalysis-2/maxwin/BulkDock/OUTPUTS/openbind_a71ev2a_c1_knitwork_impure_1B07QS4.sdf', '/opt/xchem-fragalysis-2/maxwin/BulkDock/OUTPUTS/openbind_a71ev2a_c1_knitwork_impure_1B07X5R.sdf', '/opt/xchem-fragalysis-2/maxwin/openbind-hippo/a71ev2a/openbind_a71ev2a_c1_scaffold_products.sdf', '/opt/xchem-fragalysis-2/maxwin/openbind-hippo/a71ev2a/cycle_01/bulkdock/openbind_a71ev2a_c1_scaffold_products.sdf', '/opt/xchem-fragalysis-2/maxwin/openbind-hippo/a71ev2a/cycle_01/bulkdock/openbind_a71ev2a_c1_scaffolds.sdf']

>  <fragmenstein_runtime>  (1024) 
7.328158

$$$$
C11061-P25
     RDKit          3D

 25 28  0  0  0  0  0  0  0  0999 V2000
   19.0734   13.1826    2.8687 O   0  0  0  0  0  0  0  0  0  0  0  0
   19.3842   14.1218    2.2473 C   0  0  0  0  0  0  0  0  0  0  0  0
   18.3779   14.9669    1.4610 C   0  0  0  0  0  0  0  0  0  0  0  0
   18.1165   16.3087    2.1023 C   0  0  0  0  0  0  0  0  0  0  0  0
   17.3465   16.3963    3.2681 C   0  0  0  0  0  0  0  0  0  0  0  0
   17.1604   17.6255    3.9098 C   0  0  0  0  0  0  0  0  0  0  0  0
   17.7239   18.7907    3.3752 C   0  0  0  0  0  0  0  0  0  0  0  0
   17.5681   20.0521    4.0170 N   0  0  0  0  0  0  0  0  0  0  0  0
   16.9639   20.3232    5.2276 C   0  0  0  0  0  0  0  0  0  0  0  0
   17.0561   21.6790    5.4344 C   0  0  0  0  0  0  0  0  0  0  0  0
   17.7295   22.1599    4.3043 C   0  0  0  0  0  0  0  0  0  0  0  0
   18.0388   21.1913    3.4427 N   0  0  0  0  0  0  0  0  0  0  0  0
   18.4590   18.7113    2.1842 C   0  0  0  0  0  0  0  0  0  0  0  0
   18.6552   17.4795    1.5553 C   0  0  0  0  0  0  0  0  0  0  0  0
   20.7791   14.7543    2.0134 N   0  0  0  0  0  0  0  0  0  0  0  0
   22.0856   14.3090    2.4160 C   0  0  0  0  0  0  0  0  0  0  0  0
   22.7374   13.6950    1.2341 C   0  0  0  0  0  0  0  0  0  0  0  0
   22.2892   13.7073   -0.0095 N   0  0  0  0  0  0  0  0  0  0  0  0
   23.1895   13.0435   -0.8032 N   0  0  0  0  0  0  0  0  0  0  0  0
   24.1813   12.6506   -0.0378 C   0  0  0  0  0  0  0  0  0  0  0  0
   23.9382   13.0414    1.2518 N   0  0  0  0  0  0  0  0  0  0  0  0
   24.8777   12.8925    2.3419 C   0  0  0  0  0  0  0  0  0  0  0  0
   26.0175   11.9234    2.0103 C   0  0  0  0  0  0  0  0  0  0  0  0
   26.5274   12.1252    0.5816 C   0  0  0  0  0  0  0  0  0  0  0  0
   25.4020   11.9067   -0.4308 C   0  0  0  0  0  0  0  0  0  0  0  0
  1  2  2  0
  2  3  1  0
  3  4  1  0
  4  5  2  0
  5  6  1  0
  6  7  2  0
  7  8  1  0
  8  9  1  0
  9 10  2  0
 10 11  1  0
 11 12  2  0
  7 13  1  0
 13 14  2  0
  2 15  1  0
 15 16  1  0
 16 17  1  0
 17 18  2  0
 18 19  1  0
 19 20  2  0
 20 21  1  0
 21 22  1  0
 22 23  1  0
 23 24  1  0
 24 25  1  0
 14  4  1  0
 21 17  1  0
 12  8  1  0
 25 20  1  0
M  END
>  <ref_pdb>  (1025) 
A0541a

>  <subsites>  (1025) 
3 - A0541/A/147/1,6 - A0486/A/147/1

>  <HIPPO Compound ID>  (1025) 
16894

>  <energy_score>  (1025) 
-28.604921

>  <fragmenstein_mode>  (1025) 
expansion

>  <scratch_subdir>  (1025) 
/opt/xchem-fragalysis-2/maxwin/BulkDock/SCRATCH/512218/C11061-P25

>  <smiles>  (1025) 
O=C(Cc1ccc(-n2cccn2)cc1)NCc1nnc2n1CCCC2

>  <alias>  (1025) 
C11061-P25

>  <ref_mols>  (1025) 
A0541a,A0239a

>  <inspiration_score>  (1025) 
None

>  <tags>  (1025) 
BulkDock Fragalysis export,fragmenstein_placed,openbind_a71ev2a_c1_knitwork_impure,openbind_a71ev2a_c1_scaffolds

>  <fragmenstein_outcome>  (1025) 
acceptable

>  <fragmenstein_error>  (1025) 


>  <distance_score>  (1025) 
0.655815

>  <inchikey>  (1025) 
NPIYBZYEPOASSM-UHFFFAOYSA-N

>  <name>  (1025) 
C11061-P25

>  <HIPPO Pose ID>  (1025) 
459543

>  <Energy>  (1025) 
47.771492

>  <exports>  (1025) 
['/opt/xchem-fragalysis-2/maxwin/BulkDock/OUTPUTS/openbind_a71ev2a_c1_knitwork_impure_165VXJF.sdf', '/opt/xchem-fragalysis-2/maxwin/BulkDock/OUTPUTS/openbind_a71ev2a_c1_knitwork_impure_1B07QS4.sdf', '/opt/xchem-fragalysis-2/maxwin/BulkDock/OUTPUTS/openbind_a71ev2a_c1_knitwork_impure_1B07X5R.sdf', '/opt/xchem-fragalysis-2/maxwin/openbind-hippo/a71ev2a/openbind_a71ev2a_c1_scaffold_products.sdf', '/opt/xchem-fragalysis-2/maxwin/openbind-hippo/a71ev2a/cycle_01/bulkdock/openbind_a71ev2a_c1_scaffold_products.sdf', '/opt/xchem-fragalysis-2/maxwin/openbind-hippo/a71ev2a/cycle_01/bulkdock/openbind_a71ev2a_c1_scaffolds.sdf']

>  <fragmenstein_runtime>  (1025) 
2.438066

$$$$
C11211-P161
     RDKit          3D

 13 13  0  0  0  0  0  0  0  0999 V2000
    7.5312   13.9743   22.6925 C   0  0  0  0  0  0  0  0  0  0  0  0
    8.8662   13.7986   23.4114 C   0  0  1  0  0  0  0  0  0  0  0  0
    9.6890   15.0812   23.2357 C   0  0  0  0  0  0  0  0  0  0  0  0
   11.0855   14.8809   23.6324 C   0  0  0  0  0  0  0  0  0  0  0  0
   12.1907   14.6927   23.9288 N   0  0  0  0  0  0  0  0  0  0  0  0
    8.6117   13.4878   24.8880 C   0  0  0  0  0  0  0  0  0  0  0  0
    8.9455   14.2261   25.8129 O   0  0  0  0  0  0  0  0  0  0  0  0
    7.8895   12.2452   25.2282 C   0  0  0  0  0  0  0  0  0  0  0  0
    8.1961   11.0157   24.6529 C   0  0  0  0  0  0  0  0  0  0  0  0
    7.4854    9.8921   25.0622 C   0  0  0  0  0  0  0  0  0  0  0  0
    6.4913   10.0447   26.0194 C   0  0  0  0  0  0  0  0  0  0  0  0
    6.1830   11.2213   26.6052 N   0  0  0  0  0  0  0  0  0  0  0  0
    6.8880   12.3003   26.1903 C   0  0  0  0  0  0  0  0  0  0  0  0
  2  1  1  6
  2  3  1  0
  3  4  1  0
  4  5  3  0
  2  6  1  0
  6  7  2  0
  6  8  1  0
  8  9  2  0
  9 10  1  0
 10 11  2  0
 11 12  1  0
 12 13  2  0
 13  8  1  0
M  END
>  <ref_pdb>  (1026) 
A3229a

>  <subsites>  (1026) 
1 - Active Site

>  <HIPPO Compound ID>  (1026) 
7512

>  <energy_score>  (1026) 
-20.638873

>  <fragmenstein_mode>  (1026) 
expansion

>  <scratch_subdir>  (1026) 
/opt/xchem-fragalysis-2/maxwin/BulkDock/SCRATCH/512218/C11211-P161

>  <smiles>  (1026) 
C[C@@H](CC#N)C(=O)c1cccnc1

>  <alias>  (1026) 
C11211-P161

>  <ref_mols>  (1026) 
A3229a,A1779a

>  <inspiration_score>  (1026) 
None

>  <tags>  (1026) 
BulkDock Fragalysis export,fragmenstein_placed,openbind_a71ev2a_c1_knitwork_impure,openbind_a71ev2a_c1_scaffolds

>  <fragmenstein_outcome>  (1026) 
acceptable

>  <fragmenstein_error>  (1026) 


>  <distance_score>  (1026) 
0.935487

>  <inchikey>  (1026) 
WKWSTPQELFYSBR-UHFFFAOYSA-N

>  <name>  (1026) 
C11211-P161

>  <HIPPO Pose ID>  (1026) 
459782

>  <Energy>  (1026) 
29.393552

>  <exports>  (1026) 
['/opt/xchem-fragalysis-2/maxwin/BulkDock/OUTPUTS/openbind_a71ev2a_c1_knitwork_impure_165VXJF.sdf', '/opt/xchem-fragalysis-2/maxwin/BulkDock/OUTPUTS/openbind_a71ev2a_c1_knitwork_impure_1B07QS4.sdf', '/opt/xchem-fragalysis-2/maxwin/BulkDock/OUTPUTS/openbind_a71ev2a_c1_knitwork_impure_1B07X5R.sdf', '/opt/xchem-fragalysis-2/maxwin/openbind-hippo/a71ev2a/openbind_a71ev2a_c1_scaffold_products.sdf', '/opt/xchem-fragalysis-2/maxwin/openbind-hippo/a71ev2a/cycle_01/bulkdock/openbind_a71ev2a_c1_scaffold_products.sdf', '/opt/xchem-fragalysis-2/maxwin/openbind-hippo/a71ev2a/cycle_01/bulkdock/openbind_a71ev2a_c1_scaffolds.sdf']

>  <fragmenstein_runtime>  (1026) 
0.893902

$$$$
C11216-P161
     RDKit          3D

 13 13  0  0  0  0  0  0  0  0999 V2000
   11.9971   15.1514   22.8506 C   0  0  0  0  0  0  0  0  0  0  0  0
   10.9255   14.8801   23.8942 C   0  0  0  0  0  0  0  0  0  0  0  0
   11.1049   15.7766   25.1114 C   0  0  0  0  0  0  0  0  0  0  0  0
    9.2961   15.1495   23.1255 S   0  0  0  0  0  0  0  0  0  0  0  0
    8.5391   13.5527   23.4997 C   0  0  0  0  0  0  0  0  0  0  0  0
    8.3407   13.3179   24.9855 C   0  0  0  0  0  0  0  0  0  0  0  0
    8.7310   14.0261   25.9100 O   0  0  0  0  0  0  0  0  0  0  0  0
    7.6011   12.1101   25.3552 C   0  0  0  0  0  0  0  0  0  0  0  0
    7.9296   10.8638   24.8379 C   0  0  0  0  0  0  0  0  0  0  0  0
    7.2189    9.7615   25.2860 C   0  0  0  0  0  0  0  0  0  0  0  0
    6.2071    9.9499   26.2188 C   0  0  0  0  0  0  0  0  0  0  0  0
    5.8836   11.1478   26.7488 N   0  0  0  0  0  0  0  0  0  0  0  0
    6.5913   12.2094   26.3023 C   0  0  0  0  0  0  0  0  0  0  0  0
  1  2  1  0
  2  3  1  0
  2  4  1  0
  4  5  1  0
  5  6  1  0
  6  7  2  0
  6  8  1  0
  8  9  2  0
  9 10  1  0
 10 11  2  0
 11 12  1  0
 12 13  2  0
 13  8  1  0
M  END
>  <ref_pdb>  (1027) 
A3229a

>  <subsites>  (1027) 
1 - Active Site

>  <HIPPO Compound ID>  (1027) 
4805

>  <energy_score>  (1027) 
-15.927793

>  <fragmenstein_mode>  (1027) 
expansion

>  <scratch_subdir>  (1027) 
/opt/xchem-fragalysis-2/maxwin/BulkDock/SCRATCH/512218/C11216-P161

>  <smiles>  (1027) 
CC(C)SCC(=O)c1cccnc1

>  <alias>  (1027) 
C11216-P161

>  <ref_mols>  (1027) 
A3229a,A1779a

>  <inspiration_score>  (1027) 
None

>  <tags>  (1027) 
BulkDock Fragalysis export,fragmenstein_placed,openbind_a71ev2a_c1_knitwork_impure,openbind_a71ev2a_c1_scaffolds

>  <fragmenstein_outcome>  (1027) 
acceptable

>  <fragmenstein_error>  (1027) 


>  <distance_score>  (1027) 
0.598188

>  <inchikey>  (1027) 
LZCWESDQKOJPRL-UHFFFAOYSA-N

>  <name>  (1027) 
C11216-P161

>  <HIPPO Pose ID>  (1027) 
459783

>  <Energy>  (1027) 
62.443499

>  <exports>  (1027) 
['/opt/xchem-fragalysis-2/maxwin/BulkDock/OUTPUTS/openbind_a71ev2a_c1_knitwork_impure_165VXJF.sdf', '/opt/xchem-fragalysis-2/maxwin/BulkDock/OUTPUTS/openbind_a71ev2a_c1_knitwork_impure_1B07QS4.sdf', '/opt/xchem-fragalysis-2/maxwin/BulkDock/OUTPUTS/openbind_a71ev2a_c1_knitwork_impure_1B07X5R.sdf', '/opt/xchem-fragalysis-2/maxwin/openbind-hippo/a71ev2a/openbind_a71ev2a_c1_scaffold_products.sdf', '/opt/xchem-fragalysis-2/maxwin/openbind-hippo/a71ev2a/cycle_01/bulkdock/openbind_a71ev2a_c1_scaffold_products.sdf', '/opt/xchem-fragalysis-2/maxwin/openbind-hippo/a71ev2a/cycle_01/bulkdock/openbind_a71ev2a_c1_scaffolds.sdf']

>  <fragmenstein_runtime>  (1027) 
1.476719

$$$$
C11228-P161
     RDKit          3D

 17 17  0  0  0  0  0  0  0  0999 V2000
    8.3893   14.5411   25.9121 C   0  0  0  0  0  0  0  0  0  0  0  0
    8.6836   13.4417   24.8748 C   0  0  2  0  0  0  0  0  0  0  0  0
    8.4436   13.9620   23.4396 C   0  0  0  0  0  0  0  0  0  0  0  0
    7.8115   13.3215   22.5946 O   0  0  0  0  0  0  0  0  0  0  0  0
    9.0374   15.3321   23.1137 C   0  0  0  0  0  0  0  0  0  0  0  0
    9.4960   15.5218   21.6527 C   0  0  1  0  0  0  0  0  0  0  0  0
    9.2308   16.9733   21.2506 C   0  0  0  0  0  0  0  0  0  0  0  0
   10.9911   15.1288   21.4012 C   0  0  0  0  0  0  0  0  0  0  0  0
   11.9848   16.1160   22.0296 C   0  0  0  0  0  0  0  0  0  0  0  0
   11.2869   15.1050   19.8844 C   0  0  0  0  0  0  0  0  0  0  0  0
   11.2771   13.7582   22.0305 C   0  0  0  0  0  0  0  0  0  0  0  0
    7.9530   12.1333   25.1469 C   0  0  0  0  0  0  0  0  0  0  0  0
    8.4243   10.9529   24.5580 C   0  0  0  0  0  0  0  0  0  0  0  0
    7.7796    9.7584   24.8301 C   0  0  0  0  0  0  0  0  0  0  0  0
    6.7031    9.6539   25.6361 N   0  0  0  0  0  0  0  0  0  0  0  0
    6.2396   10.8009   26.1720 C   0  0  0  0  0  0  0  0  0  0  0  0
    6.8162   12.0438   25.9574 C   0  0  0  0  0  0  0  0  0  0  0  0
  2  1  1  1
  2  3  1  0
  3  4  2  0
  3  5  1  0
  5  6  1  0
  6  7  1  1
  6  8  1  0
  8  9  1  0
  8 10  1  0
  8 11  1  0
  2 12  1  0
 12 13  2  0
 13 14  1  0
 14 15  2  0
 15 16  1  0
 16 17  2  0
 17 12  1  0
M  END
>  <ref_pdb>  (1028) 
A3229a

>  <subsites>  (1028) 
1 - Active Site

>  <HIPPO Compound ID>  (1028) 
5313

>  <energy_score>  (1028) 
-39.359307

>  <fragmenstein_mode>  (1028) 
expansion

>  <scratch_subdir>  (1028) 
/opt/xchem-fragalysis-2/maxwin/BulkDock/SCRATCH/512218/C11228-P161

>  <smiles>  (1028) 
C[C@H](C(=O)C[C@@H](C)C(C)(C)C)c1ccncc1

>  <alias>  (1028) 
C11228-P161

>  <ref_mols>  (1028) 
A3229a,A1779a

>  <inspiration_score>  (1028) 
None

>  <tags>  (1028) 
BulkDock Fragalysis export,fragmenstein_placed,openbind_a71ev2a_c1_knitwork_impure,openbind_a71ev2a_c1_scaffolds

>  <fragmenstein_outcome>  (1028) 
acceptable

>  <fragmenstein_error>  (1028) 


>  <distance_score>  (1028) 
0.986298

>  <inchikey>  (1028) 
BSIJAQBIVQHURV-UHFFFAOYSA-N

>  <name>  (1028) 
C11228-P161

>  <HIPPO Pose ID>  (1028) 
459785

>  <Energy>  (1028) 
63.746532

>  <exports>  (1028) 
['/opt/xchem-fragalysis-2/maxwin/BulkDock/OUTPUTS/openbind_a71ev2a_c1_knitwork_impure_165VXJF.sdf', '/opt/xchem-fragalysis-2/maxwin/BulkDock/OUTPUTS/openbind_a71ev2a_c1_knitwork_impure_1B07QS4.sdf', '/opt/xchem-fragalysis-2/maxwin/BulkDock/OUTPUTS/openbind_a71ev2a_c1_knitwork_impure_1B07X5R.sdf', '/opt/xchem-fragalysis-2/maxwin/openbind-hippo/a71ev2a/openbind_a71ev2a_c1_scaffold_products.sdf', '/opt/xchem-fragalysis-2/maxwin/openbind-hippo/a71ev2a/cycle_01/bulkdock/openbind_a71ev2a_c1_scaffold_products.sdf', '/opt/xchem-fragalysis-2/maxwin/openbind-hippo/a71ev2a/cycle_01/bulkdock/openbind_a71ev2a_c1_scaffolds.sdf']

>  <fragmenstein_runtime>  (1028) 
32.849701

$$$$
C11229-P161
     RDKit          3D

 15 15  0  0  0  0  0  0  0  0999 V2000
   10.8720   15.3629   19.3794 C   0  0  0  0  0  0  0  0  0  0  0  0
   11.3363   15.6335   20.4523 C   0  0  0  0  0  0  0  0  0  0  0  0
   11.9909   16.0723   21.6872 C   0  0  0  0  0  0  0  0  0  0  0  0
   11.9736   15.0365   22.8067 C   0  0  0  0  0  0  0  0  0  0  0  0
   10.6601   14.9813   23.5852 C   0  0  0  0  0  0  0  0  0  0  0  0
    9.6489   14.0353   22.9410 C   0  0  0  0  0  0  0  0  0  0  0  0
    8.2984   14.0450   23.6348 C   0  0  0  0  0  0  0  0  0  0  0  0
    8.3482   13.5391   25.0596 C   0  0  0  0  0  0  0  0  0  0  0  0
    8.8574   14.1546   25.9934 O   0  0  0  0  0  0  0  0  0  0  0  0
    7.6842   12.2655   25.3508 C   0  0  0  0  0  0  0  0  0  0  0  0
    8.0530   11.0781   24.7284 C   0  0  0  0  0  0  0  0  0  0  0  0
    7.4011    9.9092   25.1021 C   0  0  0  0  0  0  0  0  0  0  0  0
    6.4020    9.9854   26.0651 C   0  0  0  0  0  0  0  0  0  0  0  0
    6.0399   11.1229   26.6962 N   0  0  0  0  0  0  0  0  0  0  0  0
    6.6927   12.2459   26.3212 C   0  0  0  0  0  0  0  0  0  0  0  0
  1  2  3  0
  2  3  1  0
  3  4  1  0
  4  5  1  0
  5  6  1  0
  6  7  1  0
  7  8  1  0
  8  9  2  0
  8 10  1  0
 10 11  2  0
 11 12  1  0
 12 13  2  0
 13 14  1  0
 14 15  2  0
 15 10  1  0
M  END
>  <ref_pdb>  (1029) 
A3229a

>  <subsites>  (1029) 
1 - Active Site

>  <HIPPO Compound ID>  (1029) 
38131

>  <energy_score>  (1029) 
-11.830992

>  <fragmenstein_mode>  (1029) 
expansion

>  <scratch_subdir>  (1029) 
/opt/xchem-fragalysis-2/maxwin/BulkDock/SCRATCH/512218/C11229-P161

>  <smiles>  (1029) 
C#CCCCCCC(=O)c1cccnc1

>  <alias>  (1029) 
C11229-P161

>  <ref_mols>  (1029) 
A3229a,A1779a

>  <inspiration_score>  (1029) 
None

>  <tags>  (1029) 
BulkDock Fragalysis export,fragmenstein_placed,openbind_a71ev2a_c1_knitwork_impure,openbind_a71ev2a_c1_scaffolds

>  <fragmenstein_outcome>  (1029) 
acceptable

>  <fragmenstein_error>  (1029) 


>  <distance_score>  (1029) 
0.719724

>  <inchikey>  (1029) 
BRBJVKBLSPYJTQ-UHFFFAOYSA-N

>  <name>  (1029) 
C11229-P161

>  <HIPPO Pose ID>  (1029) 
459786

>  <Energy>  (1029) 
44.813084

>  <exports>  (1029) 
['/opt/xchem-fragalysis-2/maxwin/BulkDock/OUTPUTS/openbind_a71ev2a_c1_knitwork_impure_165VXJF.sdf', '/opt/xchem-fragalysis-2/maxwin/BulkDock/OUTPUTS/openbind_a71ev2a_c1_knitwork_impure_1B07QS4.sdf', '/opt/xchem-fragalysis-2/maxwin/BulkDock/OUTPUTS/openbind_a71ev2a_c1_knitwork_impure_1B07X5R.sdf', '/opt/xchem-fragalysis-2/maxwin/openbind-hippo/a71ev2a/openbind_a71ev2a_c1_scaffold_products.sdf', '/opt/xchem-fragalysis-2/maxwin/openbind-hippo/a71ev2a/cycle_01/bulkdock/openbind_a71ev2a_c1_scaffold_products.sdf', '/opt/xchem-fragalysis-2/maxwin/openbind-hippo/a71ev2a/cycle_01/bulkdock/openbind_a71ev2a_c1_scaffolds.sdf']

>  <fragmenstein_runtime>  (1029) 
1.434057

$$$$
C8032-P310
     RDKit          3D

 16 16  0  0  0  0  0  0  0  0999 V2000
    9.7397   16.7274   21.4427 C   0  0  0  0  0  0  0  0  0  0  0  0
    9.6229   15.2729   21.9325 C   0  0  0  0  0  0  0  0  0  0  0  0
    8.3637   14.6775   21.3068 C   0  0  0  0  0  0  0  0  0  0  0  0
    9.5218   15.2372   23.4716 C   0  0  0  0  0  0  0  0  0  0  0  0
    8.8371   14.0720   24.0018 N   0  0  0  0  0  0  0  0  0  0  0  0
    9.3896   12.7164   24.4707 C   0  0  0  0  0  0  0  0  0  0  0  0
   10.4716   12.2901   24.4352 O   0  0  0  0  0  0  0  0  0  0  0  0
    8.3172   11.8532   25.0506 C   0  0  0  0  0  0  0  0  0  0  0  0
    7.3047   12.3553   25.8730 C   0  0  0  0  0  0  0  0  0  0  0  0
    6.3825   11.4780   26.4458 C   0  0  0  0  0  0  0  0  0  0  0  0
    6.5064   10.1244   26.1839 C   0  0  0  0  0  0  0  0  0  0  0  0
    7.4779    9.6047   25.4057 N   0  0  0  0  0  0  0  0  0  0  0  0
    8.3662   10.4772   24.8576 C   0  0  0  0  0  0  0  0  0  0  0  0
   10.8760   14.5334   21.4498 C   0  0  0  0  0  0  0  0  0  0  0  0
   11.9810   15.1016   22.0038 F   0  0  0  0  0  0  0  0  0  0  0  0
   11.0013   14.6774   20.1046 F   0  0  0  0  0  0  0  0  0  0  0  0
  1  2  1  0
  2  3  1  0
  2  4  1  0
  4  5  1  0
  5  6  1  0
  6  7  2  0
  6  8  1  0
  8  9  2  0
  9 10  1  0
 10 11  2  0
 11 12  1  0
 12 13  2  0
  2 14  1  0
 14 15  1  0
 14 16  1  0
 13  8  1  0
M  END
>  <ref_pdb>  (1030) 
A4333a

>  <subsites>  (1030) 
1 - Active Site

>  <HIPPO Compound ID>  (1030) 
7149

>  <energy_score>  (1030) 
-17.200597

>  <fragmenstein_mode>  (1030) 
expansion

>  <scratch_subdir>  (1030) 
/opt/xchem-fragalysis-2/maxwin/BulkDock/SCRATCH/512218/C8032-P310

>  <smiles>  (1030) 
CC(C)(CNC(=O)c1cccnc1)C(F)F

>  <alias>  (1030) 
C8032-P310

>  <ref_mols>  (1030) 
A1776a,A4333a

>  <inspiration_score>  (1030) 
None

>  <tags>  (1030) 
BulkDock Fragalysis export,fragmenstein_placed,openbind_a71ev2a_c1_knitwork_impure,openbind_a71ev2a_c1_scaffolds

>  <fragmenstein_outcome>  (1030) 
acceptable

>  <fragmenstein_error>  (1030) 


>  <distance_score>  (1030) 
0.825084

>  <inchikey>  (1030) 
SBCUWSBVVFFXMM-UHFFFAOYSA-N

>  <name>  (1030) 
C8032-P310

>  <HIPPO Pose ID>  (1030) 
460007

>  <Energy>  (1030) 
37.164216

>  <exports>  (1030) 
['/opt/xchem-fragalysis-2/maxwin/BulkDock/OUTPUTS/openbind_a71ev2a_c1_knitwork_impure_165VXJF.sdf', '/opt/xchem-fragalysis-2/maxwin/BulkDock/OUTPUTS/openbind_a71ev2a_c1_knitwork_impure_1B07QS4.sdf', '/opt/xchem-fragalysis-2/maxwin/BulkDock/OUTPUTS/openbind_a71ev2a_c1_knitwork_impure_1B07X5R.sdf', '/opt/xchem-fragalysis-2/maxwin/openbind-hippo/a71ev2a/openbind_a71ev2a_c1_scaffold_products.sdf', '/opt/xchem-fragalysis-2/maxwin/openbind-hippo/a71ev2a/cycle_01/bulkdock/openbind_a71ev2a_c1_scaffold_products.sdf', '/opt/xchem-fragalysis-2/maxwin/openbind-hippo/a71ev2a/cycle_01/bulkdock/openbind_a71ev2a_c1_scaffolds.sdf']

>  <fragmenstein_runtime>  (1030) 
3.51941

$$$$
C8041-P310
     RDKit          3D

 19 19  0  0  0  0  0  0  0  0999 V2000
    8.9882   16.3058   21.4661 C   0  0  0  0  0  0  0  0  0  0  0  0
   10.2406   15.5541   21.8777 C   0  0  2  0  0  0  0  0  0  0  0  0
   10.7681   14.5950   20.8152 C   0  0  0  0  0  0  0  0  0  0  0  0
   10.9837   15.2092   19.4649 C   0  0  0  0  0  0  0  0  0  0  0  0
    9.8418   15.3657   18.7818 F   0  0  0  0  0  0  0  0  0  0  0  0
   11.5257   16.4218   19.6007 F   0  0  0  0  0  0  0  0  0  0  0  0
   11.8106   14.4491   18.7167 F   0  0  0  0  0  0  0  0  0  0  0  0
    9.9717   14.7648   23.0620 N   0  0  0  0  0  0  0  0  0  0  0  0
    8.9282   13.6242   23.3069 C   0  0  0  0  0  0  0  0  0  0  0  0
    8.0808   13.2082   22.6113 O   0  0  0  0  0  0  0  0  0  0  0  0
    9.3045   13.0250   24.6956 C   0  0  0  0  0  0  0  0  0  0  0  0
    9.2935   14.0082   25.6554 F   0  0  0  0  0  0  0  0  0  0  0  0
   10.6272   12.6229   24.6661 F   0  0  0  0  0  0  0  0  0  0  0  0
    8.4233   11.8618   25.0669 C   0  0  0  0  0  0  0  0  0  0  0  0
    7.2775   12.0113   25.8524 C   0  0  0  0  0  0  0  0  0  0  0  0
    6.5572   10.8758   26.1821 C   0  0  0  0  0  0  0  0  0  0  0  0
    6.9120    9.6303   25.7999 N   0  0  0  0  0  0  0  0  0  0  0  0
    8.0118    9.5257   25.0237 C   0  0  0  0  0  0  0  0  0  0  0  0
    8.7721   10.5919   24.6141 C   0  0  0  0  0  0  0  0  0  0  0  0
  2  1  1  6
  2  3  1  0
  3  4  1  0
  4  5  1  0
  4  6  1  0
  4  7  1  0
  2  8  1  0
  8  9  1  0
  9 10  2  0
  9 11  1  0
 11 12  1  0
 11 13  1  0
 11 14  1  0
 14 15  2  0
 15 16  1  0
 16 17  2  0
 17 18  1  0
 18 19  2  0
 19 14  1  0
M  END
>  <ref_pdb>  (1031) 
A4333a

>  <subsites>  (1031) 
1 - Active Site

>  <HIPPO Compound ID>  (1031) 
13570

>  <energy_score>  (1031) 
-0.968211

>  <fragmenstein_mode>  (1031) 
expansion

>  <scratch_subdir>  (1031) 
/opt/xchem-fragalysis-2/maxwin/BulkDock/SCRATCH/512218/C8041-P310

>  <smiles>  (1031) 
C[C@H](CC(F)(F)F)NC(=O)C(F)(F)c1ccncc1

>  <alias>  (1031) 
C8041-P310

>  <ref_mols>  (1031) 
A1776a,A4333a

>  <inspiration_score>  (1031) 
None

>  <tags>  (1031) 
BulkDock Fragalysis export,fragmenstein_placed,openbind_a71ev2a_c1_knitwork_impure,openbind_a71ev2a_c1_scaffolds

>  <fragmenstein_outcome>  (1031) 
acceptable

>  <fragmenstein_error>  (1031) 


>  <distance_score>  (1031) 
0.889681

>  <inchikey>  (1031) 
OSHPMDKWLAXVLW-UHFFFAOYSA-N

>  <name>  (1031) 
C8041-P310

>  <HIPPO Pose ID>  (1031) 
460012

>  <Energy>  (1031) 
104.703044

>  <exports>  (1031) 
['/opt/xchem-fragalysis-2/maxwin/BulkDock/OUTPUTS/openbind_a71ev2a_c1_knitwork_impure_165VXJF.sdf', '/opt/xchem-fragalysis-2/maxwin/BulkDock/OUTPUTS/openbind_a71ev2a_c1_knitwork_impure_1B07QS4.sdf', '/opt/xchem-fragalysis-2/maxwin/BulkDock/OUTPUTS/openbind_a71ev2a_c1_knitwork_impure_1B07X5R.sdf', '/opt/xchem-fragalysis-2/maxwin/openbind-hippo/a71ev2a/openbind_a71ev2a_c1_scaffold_products.sdf', '/opt/xchem-fragalysis-2/maxwin/openbind-hippo/a71ev2a/cycle_01/bulkdock/openbind_a71ev2a_c1_scaffold_products.sdf', '/opt/xchem-fragalysis-2/maxwin/openbind-hippo/a71ev2a/cycle_01/bulkdock/openbind_a71ev2a_c1_scaffolds.sdf']

>  <fragmenstein_runtime>  (1031) 
8.437919

$$$$
C8057-P310
     RDKit          3D

 13 13  0  0  0  0  0  0  0  0999 V2000
   10.2633   11.6681   24.1184 O   0  0  0  0  0  0  0  0  0  0  0  0
    9.2006   12.1374   24.1205 C   0  0  0  0  0  0  0  0  0  0  0  0
    8.6810   13.4245   23.4684 N   0  0  0  0  0  0  0  0  0  0  0  0
    9.3870   14.4675   22.7468 C   0  0  0  0  0  0  0  0  0  0  0  0
   10.4995   15.1849   23.5409 C   0  0  0  0  0  0  0  0  0  0  0  0
   12.0543   14.3261   23.5179 Cl  0  0  0  0  0  0  0  0  0  0  0  0
   10.0209   15.4840   25.2436 Cl  0  0  0  0  0  0  0  0  0  0  0  0
    8.1520   11.4496   24.9089 C   0  0  0  0  0  0  0  0  0  0  0  0
    7.2585   12.1244   25.7444 C   0  0  0  0  0  0  0  0  0  0  0  0
    6.3257   11.3934   26.4785 C   0  0  0  0  0  0  0  0  0  0  0  0
    6.3266   10.0148   26.3556 C   0  0  0  0  0  0  0  0  0  0  0  0
    7.1954    9.3376   25.5763 N   0  0  0  0  0  0  0  0  0  0  0  0
    8.1026   10.0649   24.8784 C   0  0  0  0  0  0  0  0  0  0  0  0
  1  2  2  0
  2  3  1  0
  3  4  1  0
  4  5  1  0
  5  6  1  0
  5  7  1  0
  2  8  1  0
  8  9  2  0
  9 10  1  0
 10 11  2  0
 11 12  1  0
 12 13  2  0
 13  8  1  0
M  END
>  <ref_pdb>  (1032) 
A4333a

>  <subsites>  (1032) 
1 - Active Site

>  <HIPPO Compound ID>  (1032) 
11216

>  <energy_score>  (1032) 
-1.107601

>  <fragmenstein_mode>  (1032) 
expansion

>  <scratch_subdir>  (1032) 
/opt/xchem-fragalysis-2/maxwin/BulkDock/SCRATCH/512218/C8057-P310

>  <smiles>  (1032) 
O=C(NCC(Cl)Cl)c1cccnc1

>  <alias>  (1032) 
C8057-P310

>  <ref_mols>  (1032) 
A1776a,A4333a

>  <inspiration_score>  (1032) 
None

>  <tags>  (1032) 
BulkDock Fragalysis export,fragmenstein_placed,openbind_a71ev2a_c1_knitwork_impure,openbind_a71ev2a_c1_scaffolds

>  <fragmenstein_outcome>  (1032) 
acceptable

>  <fragmenstein_error>  (1032) 


>  <distance_score>  (1032) 
0.732108

>  <inchikey>  (1032) 
UNJDLWREQAMHBE-UHFFFAOYSA-N

>  <name>  (1032) 
C8057-P310

>  <HIPPO Pose ID>  (1032) 
460019

>  <Energy>  (1032) 
57.508863

>  <exports>  (1032) 
['/opt/xchem-fragalysis-2/maxwin/BulkDock/OUTPUTS/openbind_a71ev2a_c1_knitwork_impure_165VXJF.sdf', '/opt/xchem-fragalysis-2/maxwin/BulkDock/OUTPUTS/openbind_a71ev2a_c1_knitwork_impure_1B07QS4.sdf', '/opt/xchem-fragalysis-2/maxwin/BulkDock/OUTPUTS/openbind_a71ev2a_c1_knitwork_impure_1B07X5R.sdf', '/opt/xchem-fragalysis-2/maxwin/openbind-hippo/a71ev2a/openbind_a71ev2a_c1_scaffold_products.sdf', '/opt/xchem-fragalysis-2/maxwin/openbind-hippo/a71ev2a/cycle_01/bulkdock/openbind_a71ev2a_c1_scaffold_products.sdf', '/opt/xchem-fragalysis-2/maxwin/openbind-hippo/a71ev2a/cycle_01/bulkdock/openbind_a71ev2a_c1_scaffolds.sdf']

>  <fragmenstein_runtime>  (1032) 
1.419899

$$$$
C4749-P445
     RDKit          3D

 11 12  0  0  0  0  0  0  0  0999 V2000
    6.9427   10.8661   25.3753 C   0  0  0  0  0  0  0  0  0  0  0  0
    7.2322    9.5994   25.0805 N   0  0  0  0  0  0  0  0  0  0  0  0
    8.2395    9.6996   24.1905 N   0  0  0  0  0  0  0  0  0  0  0  0
    8.5793   10.9954   23.9202 C   0  0  0  0  0  0  0  0  0  0  0  0
    7.7533   11.7971   24.6854 C   0  0  0  0  0  0  0  0  0  0  0  0
    7.6474   13.2922   24.7681 C   0  0  2  0  0  0  0  0  0  0  0  0
    6.7005   13.8680   23.6871 C   0  0  0  0  0  0  0  0  0  0  0  0
    7.0852   15.1065   23.0140 N   0  0  0  0  0  0  0  0  0  0  0  0
    8.3203   14.9237   22.2498 C   0  0  0  0  0  0  0  0  0  0  0  0
    9.5304   14.3642   23.0162 C   0  0  0  0  0  0  0  0  0  0  0  0
    9.3000   14.0860   24.8085 S   0  0  0  0  0  0  0  0  0  0  0  0
  1  2  2  0
  2  3  1  0
  3  4  1  0
  4  5  2  0
  6  5  1  6
  6  7  1  0
  7  8  1  0
  8  9  1  0
  9 10  1  0
 10 11  1  0
  5  1  1  0
 11  6  1  0
M  END
>  <ref_pdb>  (1033) 
A4715a

>  <subsites>  (1033) 
1 - Active Site

>  <HIPPO Compound ID>  (1033) 
4766

>  <energy_score>  (1033) 
-21.010292

>  <fragmenstein_mode>  (1033) 
expansion

>  <scratch_subdir>  (1033) 
/opt/xchem-fragalysis-2/maxwin/BulkDock/SCRATCH/512218/C4749-P445

>  <smiles>  (1033) 
c1n[nH]cc1[C@@H]1CNCCS1

>  <alias>  (1033) 
C4749-P445

>  <ref_mols>  (1033) 
A0556a,A4715a

>  <inspiration_score>  (1033) 
None

>  <tags>  (1033) 
BulkDock Fragalysis export,fragmenstein_placed,openbind_a71ev2a_c1_knitwork_impure,openbind_a71ev2a_c1_scaffolds

>  <fragmenstein_outcome>  (1033) 
acceptable

>  <fragmenstein_error>  (1033) 


>  <distance_score>  (1033) 
0.916349

>  <inchikey>  (1033) 
RFJGYVZIVNNSCI-UHFFFAOYSA-N

>  <name>  (1033) 
C4749-P445

>  <HIPPO Pose ID>  (1033) 
460099

>  <Energy>  (1033) 
74.247861

>  <exports>  (1033) 
['/opt/xchem-fragalysis-2/maxwin/BulkDock/OUTPUTS/openbind_a71ev2a_c1_knitwork_impure_165VXJF.sdf', '/opt/xchem-fragalysis-2/maxwin/BulkDock/OUTPUTS/openbind_a71ev2a_c1_knitwork_impure_1B07QS4.sdf', '/opt/xchem-fragalysis-2/maxwin/BulkDock/OUTPUTS/openbind_a71ev2a_c1_knitwork_impure_1B07X5R.sdf', '/opt/xchem-fragalysis-2/maxwin/openbind-hippo/a71ev2a/openbind_a71ev2a_c1_scaffold_products.sdf', '/opt/xchem-fragalysis-2/maxwin/openbind-hippo/a71ev2a/cycle_01/bulkdock/openbind_a71ev2a_c1_scaffold_products.sdf', '/opt/xchem-fragalysis-2/maxwin/openbind-hippo/a71ev2a/cycle_01/bulkdock/openbind_a71ev2a_c1_scaffolds.sdf']

>  <fragmenstein_runtime>  (1033) 
1.582991

$$$$
C4755-P445
     RDKit          3D

 10 11  0  0  0  0  0  0  0  0999 V2000
    6.9437   10.7855   25.2394 C   0  0  0  0  0  0  0  0  0  0  0  0
    7.3016    9.5067   25.1248 N   0  0  0  0  0  0  0  0  0  0  0  0
    8.3158    9.5376   24.2351 N   0  0  0  0  0  0  0  0  0  0  0  0
    8.6065   10.7958   23.8048 C   0  0  0  0  0  0  0  0  0  0  0  0
    7.7138   11.6474   24.4303 C   0  0  0  0  0  0  0  0  0  0  0  0
    7.5465   13.1145   24.2765 C   0  0  2  0  0  0  0  0  0  0  0  0
    7.0458   13.3624   22.9184 N   0  0  0  0  0  0  0  0  0  0  0  0
    7.6918   14.5692   22.4005 C   0  0  0  0  0  0  0  0  0  0  0  0
    9.1692   14.4642   22.7465 C   0  0  0  0  0  0  0  0  0  0  0  0
    9.1298   13.9758   24.4837 S   0  0  0  0  0  0  0  0  0  0  0  0
  1  2  2  0
  2  3  1  0
  3  4  1  0
  4  5  2  0
  6  5  1  6
  6  7  1  0
  7  8  1  0
  8  9  1  0
  9 10  1  0
  5  1  1  0
 10  6  1  0
M  END
>  <ref_pdb>  (1034) 
A4715a

>  <subsites>  (1034) 
1 - Active Site

>  <HIPPO Compound ID>  (1034) 
2044

>  <energy_score>  (1034) 
-20.002787

>  <fragmenstein_mode>  (1034) 
expansion

>  <scratch_subdir>  (1034) 
/opt/xchem-fragalysis-2/maxwin/BulkDock/SCRATCH/512218/C4755-P445

>  <smiles>  (1034) 
c1n[nH]cc1[C@@H]1NCCS1

>  <alias>  (1034) 
C4755-P445

>  <ref_mols>  (1034) 
A0556a,A4715a

>  <inspiration_score>  (1034) 
None

>  <tags>  (1034) 
BulkDock Fragalysis export,fragmenstein_placed,openbind_a71ev2a_c1_knitwork_impure,openbind_a71ev2a_c1_scaffolds

>  <fragmenstein_outcome>  (1034) 
acceptable

>  <fragmenstein_error>  (1034) 


>  <distance_score>  (1034) 
0.919063

>  <inchikey>  (1034) 
ZCDJYTCOFFVDFA-UHFFFAOYSA-N

>  <name>  (1034) 
C4755-P445

>  <HIPPO Pose ID>  (1034) 
460100

>  <Energy>  (1034) 
-1.261206

>  <exports>  (1034) 
['/opt/xchem-fragalysis-2/maxwin/BulkDock/OUTPUTS/openbind_a71ev2a_c1_knitwork_impure_165VXJF.sdf', '/opt/xchem-fragalysis-2/maxwin/BulkDock/OUTPUTS/openbind_a71ev2a_c1_knitwork_impure_1B07QS4.sdf', '/opt/xchem-fragalysis-2/maxwin/BulkDock/OUTPUTS/openbind_a71ev2a_c1_knitwork_impure_1B07X5R.sdf', '/opt/xchem-fragalysis-2/maxwin/openbind-hippo/a71ev2a/openbind_a71ev2a_c1_scaffold_products.sdf', '/opt/xchem-fragalysis-2/maxwin/openbind-hippo/a71ev2a/cycle_01/bulkdock/openbind_a71ev2a_c1_scaffold_products.sdf', '/opt/xchem-fragalysis-2/maxwin/openbind-hippo/a71ev2a/cycle_01/bulkdock/openbind_a71ev2a_c1_scaffolds.sdf']

>  <fragmenstein_runtime>  (1034) 
1.017019

$$$$
C4761-P445
     RDKit          3D

 11 12  0  0  0  0  0  0  0  0999 V2000
    6.8681   10.7892   25.3980 C   0  0  0  0  0  0  0  0  0  0  0  0
    7.1748    9.5549   25.0018 N   0  0  0  0  0  0  0  0  0  0  0  0
    8.1497    9.7435   24.0914 N   0  0  0  0  0  0  0  0  0  0  0  0
    8.4600   11.0631   23.9165 C   0  0  0  0  0  0  0  0  0  0  0  0
    7.6365   11.7896   24.7557 C   0  0  0  0  0  0  0  0  0  0  0  0
    7.5885   13.2660   25.0349 C   0  0  1  0  0  0  0  0  0  0  0  0
    8.8643   14.0317   24.6368 C   0  0  0  0  0  0  0  0  0  0  0  0
    9.0026   14.3869   22.8559 S   0  0  0  0  0  0  0  0  0  0  0  0
    7.3696   15.1559   22.6500 C   0  0  0  0  0  0  0  0  0  0  0  0
    6.2736   14.2438   23.1716 C   0  0  0  0  0  0  0  0  0  0  0  0
    6.3245   13.8706   24.5880 N   0  0  0  0  0  0  0  0  0  0  0  0
  1  2  2  0
  2  3  1  0
  3  4  1  0
  4  5  2  0
  6  5  1  6
  6  7  1  0
  7  8  1  0
  8  9  1  0
  9 10  1  0
 10 11  1  0
  5  1  1  0
 11  6  1  0
M  END
>  <ref_pdb>  (1035) 
A4715a

>  <subsites>  (1035) 
1 - Active Site

>  <HIPPO Compound ID>  (1035) 
7417

>  <energy_score>  (1035) 
-32.396947

>  <fragmenstein_mode>  (1035) 
expansion

>  <scratch_subdir>  (1035) 
/opt/xchem-fragalysis-2/maxwin/BulkDock/SCRATCH/512218/C4761-P445

>  <smiles>  (1035) 
c1n[nH]cc1[C@H]1CSCCN1

>  <alias>  (1035) 
C4761-P445

>  <ref_mols>  (1035) 
A0556a,A4715a

>  <inspiration_score>  (1035) 
None

>  <tags>  (1035) 
BulkDock Fragalysis export,fragmenstein_placed,openbind_a71ev2a_c1_knitwork_impure,openbind_a71ev2a_c1_scaffolds

>  <fragmenstein_outcome>  (1035) 
acceptable

>  <fragmenstein_error>  (1035) 


>  <distance_score>  (1035) 
0.738292

>  <inchikey>  (1035) 
UHCYCFVXMGQYLA-UHFFFAOYSA-N

>  <name>  (1035) 
C4761-P445

>  <HIPPO Pose ID>  (1035) 
460103

>  <Energy>  (1035) 
55.419258

>  <exports>  (1035) 
['/opt/xchem-fragalysis-2/maxwin/BulkDock/OUTPUTS/openbind_a71ev2a_c1_knitwork_impure_165VXJF.sdf', '/opt/xchem-fragalysis-2/maxwin/BulkDock/OUTPUTS/openbind_a71ev2a_c1_knitwork_impure_1B07QS4.sdf', '/opt/xchem-fragalysis-2/maxwin/BulkDock/OUTPUTS/openbind_a71ev2a_c1_knitwork_impure_1B07X5R.sdf', '/opt/xchem-fragalysis-2/maxwin/openbind-hippo/a71ev2a/openbind_a71ev2a_c1_scaffold_products.sdf', '/opt/xchem-fragalysis-2/maxwin/openbind-hippo/a71ev2a/cycle_01/bulkdock/openbind_a71ev2a_c1_scaffold_products.sdf', '/opt/xchem-fragalysis-2/maxwin/openbind-hippo/a71ev2a/cycle_01/bulkdock/openbind_a71ev2a_c1_scaffolds.sdf']

>  <fragmenstein_runtime>  (1035) 
1.252358

$$$$
C4763-P445
     RDKit          3D

 11 12  0  0  0  0  0  0  0  0999 V2000
    6.0838   13.4452   25.6916 C   0  0  0  0  0  0  0  0  0  0  0  0
    7.2688   13.0495   25.1865 C   0  0  0  0  0  0  0  0  0  0  0  0
    7.5653   11.6898   24.8629 C   0  0  0  0  0  0  0  0  0  0  0  0
    6.9360   10.5307   25.3625 C   0  0  0  0  0  0  0  0  0  0  0  0
    7.4493    9.4089   24.8627 N   0  0  0  0  0  0  0  0  0  0  0  0
    8.4033    9.8417   24.0150 N   0  0  0  0  0  0  0  0  0  0  0  0
    8.5166   11.2078   23.9917 C   0  0  0  0  0  0  0  0  0  0  0  0
    8.3892   14.0493   24.9885 C   0  0  0  0  0  0  0  0  0  0  0  0
    8.2403   15.2578   25.8336 N   0  0  0  0  0  0  0  0  0  0  0  0
    6.9063   15.8381   25.5951 C   0  0  0  0  0  0  0  0  0  0  0  0
    5.7891   14.8801   26.0287 C   0  0  0  0  0  0  0  0  0  0  0  0
  1  2  2  0
  2  3  1  0
  3  4  1  0
  4  5  2  0
  5  6  1  0
  6  7  1  0
  2  8  1  0
  8  9  1  0
  9 10  1  0
 10 11  1  0
 11  1  1  0
  7  3  2  0
M  END
>  <ref_pdb>  (1036) 
A4715a

>  <subsites>  (1036) 
1 - Active Site

>  <HIPPO Compound ID>  (1036) 
12946

>  <energy_score>  (1036) 
-23.744951

>  <fragmenstein_mode>  (1036) 
expansion

>  <scratch_subdir>  (1036) 
/opt/xchem-fragalysis-2/maxwin/BulkDock/SCRATCH/512218/C4763-P445

>  <smiles>  (1036) 
C1=C(c2cn[nH]c2)CNCC1

>  <alias>  (1036) 
C4763-P445

>  <ref_mols>  (1036) 
A0556a,A4715a

>  <inspiration_score>  (1036) 
None

>  <tags>  (1036) 
BulkDock Fragalysis export,fragmenstein_placed,openbind_a71ev2a_c1_knitwork_impure,openbind_a71ev2a_c1_scaffolds

>  <fragmenstein_outcome>  (1036) 
acceptable

>  <fragmenstein_error>  (1036) 


>  <distance_score>  (1036) 
0.97885

>  <inchikey>  (1036) 
OMEWLDYIFBMQQV-UHFFFAOYSA-N

>  <name>  (1036) 
C4763-P445

>  <HIPPO Pose ID>  (1036) 
460105

>  <Energy>  (1036) 
28.830951

>  <exports>  (1036) 
['/opt/xchem-fragalysis-2/maxwin/BulkDock/OUTPUTS/openbind_a71ev2a_c1_knitwork_impure_165VXJF.sdf', '/opt/xchem-fragalysis-2/maxwin/BulkDock/OUTPUTS/openbind_a71ev2a_c1_knitwork_impure_1B07QS4.sdf', '/opt/xchem-fragalysis-2/maxwin/BulkDock/OUTPUTS/openbind_a71ev2a_c1_knitwork_impure_1B07X5R.sdf', '/opt/xchem-fragalysis-2/maxwin/openbind-hippo/a71ev2a/openbind_a71ev2a_c1_scaffold_products.sdf', '/opt/xchem-fragalysis-2/maxwin/openbind-hippo/a71ev2a/cycle_01/bulkdock/openbind_a71ev2a_c1_scaffold_products.sdf', '/opt/xchem-fragalysis-2/maxwin/openbind-hippo/a71ev2a/cycle_01/bulkdock/openbind_a71ev2a_c1_scaffolds.sdf']

>  <fragmenstein_runtime>  (1036) 
0.991222

$$$$
C92804-P51
     RDKit          3D

 21 23  0  0  0  0  0  0  0  0999 V2000
    9.8074   14.1191    0.3532 C   0  0  0  0  0  0  0  0  0  0  0  0
    8.6911   13.1863    0.4900 N   0  0  0  0  0  0  0  0  0  0  0  0
    8.5993   12.1112   -0.5031 C   0  0  0  0  0  0  0  0  0  0  0  0
    8.8966   10.7282    0.0749 C   0  0  1  0  0  0  0  0  0  0  0  0
   10.3553   10.5426    0.5127 C   0  0  0  0  0  0  0  0  0  0  0  0
   11.2631   10.4437   -0.6078 N   0  0  0  0  0  0  0  0  0  0  0  0
   12.1546   11.5103   -1.2701 C   0  0  0  0  0  0  0  0  0  0  0  0
   12.3566   12.6178   -0.9701 O   0  0  0  0  0  0  0  0  0  0  0  0
   12.8580   10.9773   -2.4647 C   0  0  0  0  0  0  0  0  0  0  0  0
   12.2662   10.1000   -3.3672 C   0  0  0  0  0  0  0  0  0  0  0  0
   13.0198    9.6956   -4.4511 C   0  0  0  0  0  0  0  0  0  0  0  0
   14.2824   10.1203   -4.6608 N   0  0  0  0  0  0  0  0  0  0  0  0
   14.8515   10.9982   -3.7896 N   0  0  0  0  0  0  0  0  0  0  0  0
   14.1436   11.4200   -2.7213 C   0  0  0  0  0  0  0  0  0  0  0  0
    7.9302   10.4725    1.2320 C   0  0  0  0  0  0  0  0  0  0  0  0
    7.8362   11.6404    2.1781 C   0  0  0  0  0  0  0  0  0  0  0  0
    7.3421   11.4097    3.4706 C   0  0  0  0  0  0  0  0  0  0  0  0
    7.2087   12.4538    4.3788 C   0  0  0  0  0  0  0  0  0  0  0  0
    7.5416   13.7437    3.9940 C   0  0  0  0  0  0  0  0  0  0  0  0
    8.0290   13.9785    2.7046 C   0  0  0  0  0  0  0  0  0  0  0  0
    8.1994   12.9385    1.7738 C   0  0  0  0  0  0  0  0  0  0  0  0
  1  2  1  0
  2  3  1  0
  3  4  1  0
  4  5  1  1
  5  6  1  0
  6  7  1  0
  7  8  2  0
  7  9  1  0
  9 10  2  0
 10 11  1  0
 11 12  2  0
 12 13  1  0
 13 14  2  0
  4 15  1  0
 15 16  1  0
 16 17  2  0
 17 18  1  0
 18 19  2  0
 19 20  1  0
 20 21  2  0
 21  2  1  0
 14  9  1  0
 21 16  1  0
M  END
>  <ref_pdb>  (1037) 
A0239a

>  <subsites>  (1037) 
3 - A0541/A/147/1,6 - A0486/A/147/1

>  <HIPPO Compound ID>  (1037) 
25127

>  <energy_score>  (1037) 
-5.694979

>  <fragmenstein_mode>  (1037) 
expansion

>  <scratch_subdir>  (1037) 
/opt/xchem-fragalysis-2/maxwin/BulkDock/SCRATCH/512218/C92804-P51

>  <smiles>  (1037) 
CN1C[C@@H](CNC(=O)c2ccnnc2)Cc2ccccc21

>  <alias>  (1037) 
C92804-P51

>  <ref_mols>  (1037) 
A0239a,A0586a

>  <inspiration_score>  (1037) 
None

>  <tags>  (1037) 
BulkDock Fragalysis export,fragmenstein_placed,openbind_a71ev2a_c1_knitwork_impure,openbind_a71ev2a_c1_scaffolds

>  <fragmenstein_outcome>  (1037) 
acceptable

>  <fragmenstein_error>  (1037) 


>  <distance_score>  (1037) 
0.417978

>  <inchikey>  (1037) 
VMVJFLKGCWCHKW-UHFFFAOYSA-N

>  <name>  (1037) 
C92804-P51

>  <HIPPO Pose ID>  (1037) 
460345

>  <Energy>  (1037) 
27.833152

>  <exports>  (1037) 
['/opt/xchem-fragalysis-2/maxwin/BulkDock/OUTPUTS/openbind_a71ev2a_c1_knitwork_impure_165VXJF.sdf', '/opt/xchem-fragalysis-2/maxwin/BulkDock/OUTPUTS/openbind_a71ev2a_c1_knitwork_impure_1B07QS4.sdf', '/opt/xchem-fragalysis-2/maxwin/BulkDock/OUTPUTS/openbind_a71ev2a_c1_knitwork_impure_1B07X5R.sdf', '/opt/xchem-fragalysis-2/maxwin/openbind-hippo/a71ev2a/openbind_a71ev2a_c1_scaffold_products.sdf', '/opt/xchem-fragalysis-2/maxwin/openbind-hippo/a71ev2a/cycle_01/bulkdock/openbind_a71ev2a_c1_scaffold_products.sdf', '/opt/xchem-fragalysis-2/maxwin/openbind-hippo/a71ev2a/cycle_01/bulkdock/openbind_a71ev2a_c1_scaffolds.sdf']

>  <fragmenstein_runtime>  (1037) 
1.683495

$$$$
C7585-P199
     RDKit          3D

 13 13  0  0  0  0  0  0  0  0999 V2000
    8.9799    9.8764   23.7611 C   0  0  0  0  0  0  0  0  0  0  0  0
    8.1350   10.4689   24.8815 C   0  0  0  0  0  0  0  0  0  0  0  0
    7.7379   11.9218   24.7436 C   0  0  0  0  0  0  0  0  0  0  0  0
    9.0742   13.0679   24.5157 S   0  0  0  0  0  0  0  0  0  0  0  0
    8.9084   14.1090   25.5042 O   0  0  0  0  0  0  0  0  0  0  0  0
   10.3103   12.3305   24.3940 O   0  0  0  0  0  0  0  0  0  0  0  0
    8.6059   13.7109   22.9973 N   0  0  0  0  0  0  0  0  0  0  0  0
    9.5777   14.6123   22.4472 N   0  0  0  0  0  0  0  0  0  0  0  0
   10.8974   13.9853   22.1873 C   0  0  0  0  0  0  0  0  0  0  0  0
   11.8027   14.7137   21.1768 C   0  0  0  0  0  0  0  0  0  0  0  0
   11.1096   15.0767   19.9442 N   0  0  0  0  0  0  0  0  0  0  0  0
    9.9805   15.9258   20.3079 C   0  0  0  0  0  0  0  0  0  0  0  0
    8.9994   15.1617   21.1958 C   0  0  0  0  0  0  0  0  0  0  0  0
  1  2  1  0
  2  3  1  0
  3  4  1  0
  4  5  2  0
  4  6  2  0
  4  7  1  0
  7  8  1  0
  8  9  1  0
  9 10  1  0
 10 11  1  0
 11 12  1  0
 12 13  1  0
 13  8  1  0
M  END
>  <ref_pdb>  (1038) 
A3621a

>  <subsites>  (1038) 
1 - Active Site

>  <HIPPO Compound ID>  (1038) 
10845

>  <energy_score>  (1038) 
-30.825766

>  <fragmenstein_mode>  (1038) 
expansion

>  <scratch_subdir>  (1038) 
/opt/xchem-fragalysis-2/maxwin/BulkDock/SCRATCH/511205/C7585-P199

>  <smiles>  (1038) 
CCCS(=O)(=O)NN1CCNCC1

>  <alias>  (1038) 
C7585-P199

>  <ref_mols>  (1038) 
A0719a,A3621a

>  <inspiration_score>  (1038) 
None

>  <tags>  (1038) 
BulkDock Fragalysis export,fragmenstein_placed,openbind_a71ev2a_c1_knitwork_impure,openbind_a71ev2a_c1_scaffolds

>  <fragmenstein_outcome>  (1038) 
acceptable

>  <fragmenstein_error>  (1038) 


>  <distance_score>  (1038) 
0.906062

>  <inchikey>  (1038) 
QHXZCCYDVDNOIS-UHFFFAOYSA-N

>  <name>  (1038) 
C7585-P199

>  <HIPPO Pose ID>  (1038) 
460721

>  <Energy>  (1038) 
95.312212

>  <exports>  (1038) 
['/opt/xchem-fragalysis-2/maxwin/BulkDock/OUTPUTS/openbind_a71ev2a_c1_knitwork_impure_165VXJF.sdf', '/opt/xchem-fragalysis-2/maxwin/BulkDock/OUTPUTS/openbind_a71ev2a_c1_knitwork_impure_1B07QS4.sdf', '/opt/xchem-fragalysis-2/maxwin/BulkDock/OUTPUTS/openbind_a71ev2a_c1_knitwork_impure_1B07X5R.sdf', '/opt/xchem-fragalysis-2/maxwin/openbind-hippo/a71ev2a/openbind_a71ev2a_c1_scaffold_products.sdf', '/opt/xchem-fragalysis-2/maxwin/openbind-hippo/a71ev2a/cycle_01/bulkdock/openbind_a71ev2a_c1_scaffold_products.sdf', '/opt/xchem-fragalysis-2/maxwin/openbind-hippo/a71ev2a/cycle_01/bulkdock/openbind_a71ev2a_c1_scaffolds.sdf']

>  <fragmenstein_runtime>  (1038) 
6.373949

$$$$
C7646-P199
     RDKit          3D

 13 14  0  0  0  0  0  0  0  0999 V2000
    5.6972   15.8396   21.9329 N   0  0  0  0  0  0  0  0  0  0  0  0
    6.8731   14.8165   22.5103 S   0  0  0  0  0  0  0  0  0  0  0  0
    8.1533   15.3593   22.1372 O   0  0  0  0  0  0  0  0  0  0  0  0
    6.4918   13.4947   22.0756 O   0  0  0  0  0  0  0  0  0  0  0  0
    6.5990   15.0450   24.2699 C   0  0  0  0  0  0  0  0  0  0  0  0
    7.6119   14.3575   25.1722 C   0  0  0  0  0  0  0  0  0  0  0  0
    7.3616   12.8489   25.2898 C   0  0  0  0  0  0  0  0  0  0  0  0
    8.5330   12.0507   24.9523 N   0  0  0  0  0  0  0  0  0  0  0  0
    8.2502   10.6138   25.0343 C   0  0  0  0  0  0  0  0  0  0  0  0
    9.4003   10.0494   24.2611 C   0  0  1  0  0  0  0  0  0  0  0  0
    9.3378    9.6616   22.8507 C   0  0  0  0  0  0  0  0  0  0  0  0
    9.7805   11.0668   23.2660 C   0  0  1  0  0  0  0  0  0  0  0  0
    9.0105   12.2822   23.5851 C   0  0  0  0  0  0  0  0  0  0  0  0
  1  2  1  0
  2  3  2  0
  2  4  2  0
  2  5  1  0
  5  6  1  0
  6  7  1  0
  7  8  1  0
  8  9  1  0
 10  9  1  6
 10 11  1  0
 12 11  1  6
 12 13  1  0
 13  8  1  0
 12 10  1  0
M  END
>  <ref_pdb>  (1039) 
A3621a

>  <subsites>  (1039) 
1 - Active Site

>  <HIPPO Compound ID>  (1039) 
23295

>  <energy_score>  (1039) 
-13.163307

>  <fragmenstein_mode>  (1039) 
expansion

>  <scratch_subdir>  (1039) 
/opt/xchem-fragalysis-2/maxwin/BulkDock/SCRATCH/511205/C7646-P199

>  <smiles>  (1039) 
NS(=O)(=O)CCCN1C[C@H]2C[C@H]2C1

>  <alias>  (1039) 
C7646-P199

>  <ref_mols>  (1039) 
A0719a,A3621a

>  <inspiration_score>  (1039) 
None

>  <tags>  (1039) 
BulkDock Fragalysis export,fragmenstein_placed,openbind_a71ev2a_c1_knitwork_impure,openbind_a71ev2a_c1_scaffolds

>  <fragmenstein_outcome>  (1039) 
acceptable

>  <fragmenstein_error>  (1039) 


>  <distance_score>  (1039) 
0.971575

>  <inchikey>  (1039) 
UQGFVTTVRVRYFR-UHFFFAOYSA-N

>  <name>  (1039) 
C7646-P199

>  <HIPPO Pose ID>  (1039) 
460752

>  <Energy>  (1039) 
-46.385164

>  <exports>  (1039) 
['/opt/xchem-fragalysis-2/maxwin/BulkDock/OUTPUTS/openbind_a71ev2a_c1_knitwork_impure_165VXJF.sdf', '/opt/xchem-fragalysis-2/maxwin/BulkDock/OUTPUTS/openbind_a71ev2a_c1_knitwork_impure_1B07QS4.sdf', '/opt/xchem-fragalysis-2/maxwin/BulkDock/OUTPUTS/openbind_a71ev2a_c1_knitwork_impure_1B07X5R.sdf', '/opt/xchem-fragalysis-2/maxwin/openbind-hippo/a71ev2a/openbind_a71ev2a_c1_scaffold_products.sdf', '/opt/xchem-fragalysis-2/maxwin/openbind-hippo/a71ev2a/cycle_01/bulkdock/openbind_a71ev2a_c1_scaffold_products.sdf', '/opt/xchem-fragalysis-2/maxwin/openbind-hippo/a71ev2a/cycle_01/bulkdock/openbind_a71ev2a_c1_scaffolds.sdf']

>  <fragmenstein_runtime>  (1039) 
3.650259

$$$$
C1805-P190
     RDKit          3D

 15 17  0  0  0  0  0  0  0  0999 V2000
   12.4044   15.5274   23.0181 C   0  0  0  0  0  0  0  0  0  0  0  0
   11.1427   16.0712   23.6566 C   0  0  0  0  0  0  0  0  0  0  0  0
    9.8703   15.6431   22.9224 C   0  0  0  0  0  0  0  0  0  0  0  0
    9.3633   14.3185   23.4346 C   0  0  0  0  0  0  0  0  0  0  0  0
    9.8124   13.1220   23.1185 N   0  0  0  0  0  0  0  0  0  0  0  0
    9.0317   12.1447   23.7137 C   0  0  0  0  0  0  0  0  0  0  0  0
    8.0270   12.6239   24.5224 C   0  0  0  0  0  0  0  0  0  0  0  0
    8.0530   14.3279   24.5510 S   0  0  0  0  0  0  0  0  0  0  0  0
    6.9900   11.8957   25.2742 C   0  0  0  0  0  0  0  0  0  0  0  0
    7.2265   10.1092   25.3686 S   0  0  0  0  0  0  0  0  0  0  0  0
    8.2586    9.7334   23.9139 C   0  0  0  0  0  0  0  0  0  0  0  0
    9.3279   10.7130   23.4575 C   0  0  0  0  0  0  0  0  0  0  0  0
   10.0085   15.6757   21.3946 C   0  0  0  0  0  0  0  0  0  0  0  0
   11.3669   15.2010   20.8951 C   0  0  0  0  0  0  0  0  0  0  0  0
   12.4390   15.8945   21.6085 N   0  0  0  0  0  0  0  0  0  0  0  0
  1  2  1  0
  2  3  1  0
  3  4  1  0
  4  5  2  0
  5  6  1  0
  6  7  2  0
  7  8  1  0
  7  9  1  0
  9 10  1  0
 10 11  1  0
 11 12  1  0
  3 13  1  0
 13 14  1  0
 14 15  1  0
 15  1  1  0
  8  4  1  0
 12  6  1  0
M  END
>  <ref_pdb>  (1040) 
A3509a

>  <subsites>  (1040) 
1 - Active Site

>  <HIPPO Compound ID>  (1040) 
25702

>  <energy_score>  (1040) 
-77.802497

>  <fragmenstein_mode>  (1040) 
expansion

>  <scratch_subdir>  (1040) 
/opt/xchem-fragalysis-2/maxwin/BulkDock/SCRATCH/511205/C1805-P190

>  <smiles>  (1040) 
C1CC(c2nc3c(s2)CSCC3)CCN1

>  <alias>  (1040) 
C1805-P190

>  <ref_mols>  (1040) 
A3623a,A3509a

>  <inspiration_score>  (1040) 
None

>  <tags>  (1040) 
BulkDock Fragalysis export,fragmenstein_placed,openbind_a71ev2a_c1_knitwork_impure,openbind_a71ev2a_c1_scaffolds

>  <fragmenstein_outcome>  (1040) 
acceptable

>  <fragmenstein_error>  (1040) 


>  <distance_score>  (1040) 
0.952918

>  <inchikey>  (1040) 
VLNCLLLQZBZMCZ-UHFFFAOYSA-N

>  <name>  (1040) 
C1805-P190

>  <HIPPO Pose ID>  (1040) 
460783

>  <Energy>  (1040) 
9.597625

>  <exports>  (1040) 
['/opt/xchem-fragalysis-2/maxwin/BulkDock/OUTPUTS/openbind_a71ev2a_c1_knitwork_impure_165VXJF.sdf', '/opt/xchem-fragalysis-2/maxwin/BulkDock/OUTPUTS/openbind_a71ev2a_c1_knitwork_impure_1B07QS4.sdf', '/opt/xchem-fragalysis-2/maxwin/BulkDock/OUTPUTS/openbind_a71ev2a_c1_knitwork_impure_1B07X5R.sdf', '/opt/xchem-fragalysis-2/maxwin/openbind-hippo/a71ev2a/openbind_a71ev2a_c1_scaffold_products.sdf', '/opt/xchem-fragalysis-2/maxwin/openbind-hippo/a71ev2a/cycle_01/bulkdock/openbind_a71ev2a_c1_scaffold_products.sdf', '/opt/xchem-fragalysis-2/maxwin/openbind-hippo/a71ev2a/cycle_01/bulkdock/openbind_a71ev2a_c1_scaffolds.sdf']

>  <fragmenstein_runtime>  (1040) 
49.495195

$$$$
C7054-P192
     RDKit          3D

 16 16  0  0  0  0  0  0  0  0999 V2000
    9.2570   14.5451   21.1265 O   0  0  0  0  0  0  0  0  0  0  0  0
   10.3519   14.9518   21.0004 C   0  0  0  0  0  0  0  0  0  0  0  0
   11.5169   15.0790   22.0480 N   0  0  0  0  0  0  0  0  0  0  0  0
   11.5914   14.6472   23.4153 C   0  0  0  0  0  0  0  0  0  0  0  0
   10.2570   14.5979   24.1494 C   0  0  0  0  0  0  0  0  0  0  0  0
    9.6399   15.9742   24.4016 C   0  0  0  0  0  0  0  0  0  0  0  0
    8.1815   15.9073   24.9021 C   0  0  1  0  0  0  0  0  0  0  0  0
    7.9937   15.0455   26.1555 C   0  0  0  0  0  0  0  0  0  0  0  0
    6.5246   15.0211   26.5993 C   0  0  0  0  0  0  0  0  0  0  0  0
    5.7006   16.1785   26.0317 C   0  0  0  0  0  0  0  0  0  0  0  0
    6.4844   17.4026   26.0577 N   0  0  0  0  0  0  0  0  0  0  0  0
    7.6411   17.3330   25.1573 C   0  0  0  0  0  0  0  0  0  0  0  0
   10.9314   15.4805   19.6457 C   0  0  0  0  0  0  0  0  0  0  0  0
   10.9771   14.5266   18.6764 F   0  0  0  0  0  0  0  0  0  0  0  0
   10.2297   16.5304   19.1469 F   0  0  0  0  0  0  0  0  0  0  0  0
   12.2153   15.9172   19.8015 F   0  0  0  0  0  0  0  0  0  0  0  0
  1  2  2  0
  2  3  1  0
  3  4  1  0
  4  5  1  0
  5  6  1  0
  7  6  1  1
  7  8  1  0
  8  9  1  0
  9 10  1  0
 10 11  1  0
 11 12  1  0
  2 13  1  0
 13 14  1  0
 13 15  1  0
 13 16  1  0
 12  7  1  0
M  END
>  <ref_pdb>  (1041) 
A3510a

>  <subsites>  (1041) 
1 - Active Site,5 - A3181/A/202/1

>  <HIPPO Compound ID>  (1041) 
1719

>  <energy_score>  (1041) 
-9.939725

>  <fragmenstein_mode>  (1041) 
expansion

>  <scratch_subdir>  (1041) 
/opt/xchem-fragalysis-2/maxwin/BulkDock/SCRATCH/511205/C7054-P192

>  <smiles>  (1041) 
O=C(NCCC[C@H]1CCCNC1)C(F)(F)F

>  <alias>  (1041) 
C7054-P192

>  <ref_mols>  (1041) 
A3510a,A3181b

>  <inspiration_score>  (1041) 
None

>  <tags>  (1041) 
BulkDock Fragalysis export,fragmenstein_placed,openbind_a71ev2a_c1_knitwork_impure,openbind_a71ev2a_c1_scaffolds

>  <fragmenstein_outcome>  (1041) 
acceptable

>  <fragmenstein_error>  (1041) 


>  <distance_score>  (1041) 
0.655164

>  <inchikey>  (1041) 
CQSLSCYKXAPOGE-UHFFFAOYSA-N

>  <name>  (1041) 
C7054-P192

>  <HIPPO Pose ID>  (1041) 
461148

>  <Energy>  (1041) 
101.408437

>  <exports>  (1041) 
['/opt/xchem-fragalysis-2/maxwin/BulkDock/OUTPUTS/openbind_a71ev2a_c1_knitwork_impure_165VXJF.sdf', '/opt/xchem-fragalysis-2/maxwin/BulkDock/OUTPUTS/openbind_a71ev2a_c1_knitwork_impure_1B07QS4.sdf', '/opt/xchem-fragalysis-2/maxwin/BulkDock/OUTPUTS/openbind_a71ev2a_c1_knitwork_impure_1B07X5R.sdf', '/opt/xchem-fragalysis-2/maxwin/openbind-hippo/a71ev2a/openbind_a71ev2a_c1_scaffold_products.sdf', '/opt/xchem-fragalysis-2/maxwin/openbind-hippo/a71ev2a/cycle_01/bulkdock/openbind_a71ev2a_c1_scaffold_products.sdf', '/opt/xchem-fragalysis-2/maxwin/openbind-hippo/a71ev2a/cycle_01/bulkdock/openbind_a71ev2a_c1_scaffolds.sdf']

>  <fragmenstein_runtime>  (1041) 
72.521534

$$$$
C17572-P125
     RDKit          3D

 18 19  0  0  0  0  0  0  0  0999 V2000
   22.4792   -1.4763   20.0801 C   0  0  0  0  0  0  0  0  0  0  0  0
   21.3549   -2.3401   20.2040 O   0  0  0  0  0  0  0  0  0  0  0  0
   20.2076   -1.7782   19.5759 C   0  0  0  0  0  0  0  0  0  0  0  0
   19.0604   -2.7276   19.7532 C   0  0  0  0  0  0  0  0  0  0  0  0
   18.1955   -2.9917   18.8192 N   0  0  0  0  0  0  0  0  0  0  0  0
   17.3050   -3.8775   19.3568 N   0  0  0  0  0  0  0  0  0  0  0  0
   17.5606   -4.2052   20.6808 C   0  0  0  0  0  0  0  0  0  0  0  0
   16.9353   -4.9555   21.4122 O   0  0  0  0  0  0  0  0  0  0  0  0
   18.8260   -3.4819   21.0287 C   0  0  2  0  0  0  0  0  0  0  0  0
   18.7325   -2.6383   22.2792 C   0  0  0  0  0  0  0  0  0  0  0  0
   18.6982   -1.4672   22.2667 O   0  0  0  0  0  0  0  0  0  0  0  0
   18.8007   -3.6377   23.4823 N   0  0  0  0  0  0  0  0  0  0  0  0
   18.7464   -3.4053   24.8536 C   0  0  0  0  0  0  0  0  0  0  0  0
   18.6969   -4.4902   25.7251 C   0  0  0  0  0  0  0  0  0  0  0  0
   18.6552   -4.2661   27.0999 C   0  0  0  0  0  0  0  0  0  0  0  0
   18.6503   -2.9577   27.5552 C   0  0  0  0  0  0  0  0  0  0  0  0
   18.6726   -1.8792   26.7407 N   0  0  0  0  0  0  0  0  0  0  0  0
   18.7487   -2.1302   25.4063 C   0  0  0  0  0  0  0  0  0  0  0  0
  1  2  1  0
  2  3  1  0
  3  4  1  0
  4  5  2  0
  5  6  1  0
  6  7  1  0
  7  8  2  0
  7  9  1  0
  9 10  1  1
 10 11  2  0
 10 12  1  0
 12 13  1  0
 13 14  2  0
 14 15  1  0
 15 16  2  0
 16 17  1  0
 17 18  2  0
  9  4  1  0
 18 13  1  0
M  END
>  <ref_pdb>  (1042) 
A1779a

>  <subsites>  (1042) 
1 - Active Site,2 - A3977/A/202/1

>  <HIPPO Compound ID>  (1042) 
7660

>  <energy_score>  (1042) 
-51.039644

>  <fragmenstein_mode>  (1042) 
expansion

>  <scratch_subdir>  (1042) 
/opt/xchem-fragalysis-2/maxwin/BulkDock/SCRATCH/511205/C17572-P125

>  <smiles>  (1042) 
COCC1=NNC(=O)[C@@H]1C(=O)Nc1cccnc1

>  <alias>  (1042) 
C17572-P125

>  <ref_mols>  (1042) 
A1779a,A0341a

>  <inspiration_score>  (1042) 
None

>  <tags>  (1042) 
BulkDock Fragalysis export,fragmenstein_placed,openbind_a71ev2a_c1_knitwork_impure,openbind_a71ev2a_c1_scaffolds

>  <fragmenstein_outcome>  (1042) 
acceptable

>  <fragmenstein_error>  (1042) 


>  <distance_score>  (1042) 
0.476046

>  <inchikey>  (1042) 
NEEWPLZUMQNHBI-UHFFFAOYSA-N

>  <name>  (1042) 
C17572-P125

>  <HIPPO Pose ID>  (1042) 
461181

>  <Energy>  (1042) 
41.215521

>  <exports>  (1042) 
['/opt/xchem-fragalysis-2/maxwin/BulkDock/OUTPUTS/openbind_a71ev2a_c1_knitwork_impure_165VXJF.sdf', '/opt/xchem-fragalysis-2/maxwin/BulkDock/OUTPUTS/openbind_a71ev2a_c1_knitwork_impure_1B07QS4.sdf', '/opt/xchem-fragalysis-2/maxwin/BulkDock/OUTPUTS/openbind_a71ev2a_c1_knitwork_impure_1B07X5R.sdf', '/opt/xchem-fragalysis-2/maxwin/openbind-hippo/a71ev2a/openbind_a71ev2a_c1_scaffold_products.sdf', '/opt/xchem-fragalysis-2/maxwin/openbind-hippo/a71ev2a/cycle_01/bulkdock/openbind_a71ev2a_c1_scaffold_products.sdf', '/opt/xchem-fragalysis-2/maxwin/openbind-hippo/a71ev2a/cycle_01/bulkdock/openbind_a71ev2a_c1_scaffolds.sdf']

>  <fragmenstein_runtime>  (1042) 
1.941715

$$$$
C995-P439
     RDKit          3D

 24 27  0  0  0  0  0  0  0  0999 V2000
   19.5476   12.9536    3.5457 O   0  0  0  0  0  0  0  0  0  0  0  0
   19.7399   13.9952    3.0525 C   0  0  0  0  0  0  0  0  0  0  0  0
   18.6137   14.8407    2.4651 C   0  0  0  0  0  0  0  0  0  0  0  0
   18.3837   16.0832    3.2638 C   0  0  0  0  0  0  0  0  0  0  0  0
   19.3282   16.8747    3.7345 N   0  0  0  0  0  0  0  0  0  0  0  0
   18.7761   18.0109    4.3205 C   0  0  0  0  0  0  0  0  0  0  0  0
   19.7243   19.0379    4.8855 C   0  0  0  0  0  0  0  0  0  0  0  0
   19.6918   19.1291    6.4095 C   0  0  0  0  0  0  0  0  0  0  0  0
   18.6119   20.1540    6.7282 C   0  0  0  0  0  0  0  0  0  0  0  0
   18.5518   21.0892    5.5242 C   0  0  0  0  0  0  0  0  0  0  0  0
   19.4363   20.4721    4.4407 C   0  0  0  0  0  0  0  0  0  0  0  0
   17.3949   18.0339    4.3059 C   0  0  0  0  0  0  0  0  0  0  0  0
   16.7773   16.6251    3.5568 S   0  0  0  0  0  0  0  0  0  0  0  0
   21.0672   14.7368    2.7592 N   0  0  0  0  0  0  0  0  0  0  0  0
   22.4266   14.3127    2.9239 C   0  0  0  0  0  0  0  0  0  0  0  0
   22.8782   13.7065    1.6445 C   0  0  0  0  0  0  0  0  0  0  0  0
   22.2571   13.7334    0.4772 N   0  0  0  0  0  0  0  0  0  0  0  0
   23.0258   13.0578   -0.4405 N   0  0  0  0  0  0  0  0  0  0  0  0
   24.1075   12.6399    0.1765 C   0  0  0  0  0  0  0  0  0  0  0  0
   24.0542   13.0272    1.4878 N   0  0  0  0  0  0  0  0  0  0  0  0
   25.1255   12.8519    2.4426 C   0  0  0  0  0  0  0  0  0  0  0  0
   26.2201   11.9027    1.9489 C   0  0  0  0  0  0  0  0  0  0  0  0
   26.5107   12.0942    0.4583 C   0  0  0  0  0  0  0  0  0  0  0  0
   25.2494   11.8747   -0.3795 C   0  0  0  0  0  0  0  0  0  0  0  0
  1  2  2  0
  2  3  1  0
  3  4  1  0
  4  5  2  0
  5  6  1  0
  6  7  1  0
  7  8  1  0
  8  9  1  0
  9 10  1  0
 10 11  1  0
  6 12  2  0
 12 13  1  0
  2 14  1  0
 14 15  1  0
 15 16  1  0
 16 17  2  0
 17 18  1  0
 18 19  2  0
 19 20  1  0
 20 21  1  0
 21 22  1  0
 22 23  1  0
 23 24  1  0
 13  4  1  0
 20 16  1  0
 11  7  1  0
 24 19  1  0
M  END
>  <ref_pdb>  (1043) 
A4706a

>  <subsites>  (1043) 
1 - Active Site,6 - A0486/A/147/1

>  <HIPPO Compound ID>  (1043) 
43550

>  <energy_score>  (1043) 
-58.236435

>  <fragmenstein_mode>  (1043) 
expansion

>  <scratch_subdir>  (1043) 
/opt/xchem-fragalysis-2/maxwin/BulkDock/SCRATCH/511205/C995-P439

>  <smiles>  (1043) 
O=C(Cc1nc(C2CCCC2)cs1)NCc1nnc2n1CCCC2

>  <alias>  (1043) 
C995-P439

>  <ref_mols>  (1043) 
A0239a,A4706a

>  <inspiration_score>  (1043) 
None

>  <tags>  (1043) 
BulkDock Fragalysis export,fragmenstein_placed,openbind_a71ev2a_c1_knitwork_impure,openbind_a71ev2a_c1_scaffolds

>  <fragmenstein_outcome>  (1043) 
acceptable

>  <fragmenstein_error>  (1043) 


>  <distance_score>  (1043) 
0.471051

>  <inchikey>  (1043) 
ZBXDTHJRDBKMNJ-UHFFFAOYSA-N

>  <name>  (1043) 
C995-P439

>  <HIPPO Pose ID>  (1043) 
462282

>  <Energy>  (1043) 
14.343664

>  <exports>  (1043) 
['/opt/xchem-fragalysis-2/maxwin/BulkDock/OUTPUTS/openbind_a71ev2a_c1_knitwork_impure_165VXJF.sdf', '/opt/xchem-fragalysis-2/maxwin/BulkDock/OUTPUTS/openbind_a71ev2a_c1_knitwork_impure_1B07QS4.sdf', '/opt/xchem-fragalysis-2/maxwin/BulkDock/OUTPUTS/openbind_a71ev2a_c1_knitwork_impure_1B07X5R.sdf', '/opt/xchem-fragalysis-2/maxwin/openbind-hippo/a71ev2a/openbind_a71ev2a_c1_scaffold_products.sdf', '/opt/xchem-fragalysis-2/maxwin/openbind-hippo/a71ev2a/cycle_01/bulkdock/openbind_a71ev2a_c1_scaffold_products.sdf', '/opt/xchem-fragalysis-2/maxwin/openbind-hippo/a71ev2a/cycle_01/bulkdock/openbind_a71ev2a_c1_scaffolds.sdf']

>  <fragmenstein_runtime>  (1043) 
3.809877

$$$$
C37374-P54
     RDKit          3D

 21 24  0  0  0  0  0  0  0  0999 V2000
   21.3229   -3.3144   18.5020 O   0  0  0  0  0  0  0  0  0  0  0  0
   20.4672   -2.6428   18.9158 C   0  0  0  0  0  0  0  0  0  0  0  0
   20.4943   -1.1833   19.4162 N   0  0  0  0  0  0  0  0  0  0  0  0
   21.5992   -0.2782   19.6000 C   0  0  0  0  0  0  0  0  0  0  0  0
   21.9795   -0.3020   21.0749 C   0  0  0  0  0  0  0  0  0  0  0  0
   23.1583    0.5713   21.3811 C   0  0  1  0  0  0  0  0  0  0  0  0
   24.6469    0.2070   21.0085 C   0  0  0  0  0  0  0  0  0  0  0  0
   24.8690    1.3028   22.1150 C   0  0  1  0  0  0  0  0  0  0  0  0
   24.1607    2.5584   21.5883 C   0  0  0  0  0  0  0  0  0  0  0  0
   22.9660    1.9746   21.0459 O   0  0  0  0  0  0  0  0  0  0  0  0
   23.7316    0.5286   22.8564 C   0  0  0  0  0  0  0  0  0  0  0  0
   19.0877   -3.1516   19.1491 C   0  0  0  0  0  0  0  0  0  0  0  0
   18.1780   -3.5428   18.0936 C   0  0  0  0  0  0  0  0  0  0  0  0
   16.9435   -3.9985   18.3967 C   0  0  0  0  0  0  0  0  0  0  0  0
   15.9458   -4.4783   17.4214 C   0  0  0  0  0  0  0  0  0  0  0  0
   15.4529   -5.9056   17.5280 C   0  0  0  0  0  0  0  0  0  0  0  0
   14.4962   -4.7693   17.7354 C   0  0  0  0  0  0  0  0  0  0  0  0
   16.6100   -4.0627   19.7241 N   0  0  0  0  0  0  0  0  0  0  0  0
   17.4562   -3.8465   20.7742 C   0  0  0  0  0  0  0  0  0  0  0  0
   17.1604   -4.0922   21.9354 O   0  0  0  0  0  0  0  0  0  0  0  0
   18.7797   -3.3157   20.4431 C   0  0  0  0  0  0  0  0  0  0  0  0
  1  2  2  0
  2  3  1  0
  3  4  1  0
  4  5  1  0
  6  5  1  1
  6  7  1  0
  8  7  1  6
  8  9  1  0
  9 10  1  0
  8 11  1  0
  2 12  1  0
 12 13  1  0
 13 14  2  0
 14 15  1  0
 15 16  1  0
 16 17  1  0
 14 18  1  0
 18 19  1  0
 19 20  2  0
 19 21  1  0
 10  6  1  0
 21 12  2  0
 11  6  1  0
 17 15  1  0
M  END
>  <ref_pdb>  (1044) 
A0341a

>  <subsites>  (1044) 
2 - A3977/A/202/1,4 - A0525/A/246/1

>  <HIPPO Compound ID>  (1044) 
20907

>  <energy_score>  (1044) 
-19.701114

>  <fragmenstein_mode>  (1044) 
expansion

>  <scratch_subdir>  (1044) 
/opt/xchem-fragalysis-2/maxwin/BulkDock/SCRATCH/511205/C37374-P54

>  <smiles>  (1044) 
O=C(NCC[C@]12C[C@H](CO1)C2)c1cc(C2CC2)[nH]c(=O)c1

>  <alias>  (1044) 
C37374-P54

>  <ref_mols>  (1044) 
A0525a,A0341a

>  <inspiration_score>  (1044) 
None

>  <tags>  (1044) 
BulkDock Fragalysis export,fragmenstein_placed,openbind_a71ev2a_c1_knitwork_impure,openbind_a71ev2a_c1_scaffolds

>  <fragmenstein_outcome>  (1044) 
acceptable

>  <fragmenstein_error>  (1044) 


>  <distance_score>  (1044) 
0.937831

>  <inchikey>  (1044) 
XNZBNQSOCXCBBB-UHFFFAOYSA-N

>  <name>  (1044) 
C37374-P54

>  <HIPPO Pose ID>  (1044) 
462474

>  <Energy>  (1044) 
12.907022

>  <exports>  (1044) 
['/opt/xchem-fragalysis-2/maxwin/BulkDock/OUTPUTS/openbind_a71ev2a_c1_knitwork_impure_165VXJF.sdf', '/opt/xchem-fragalysis-2/maxwin/BulkDock/OUTPUTS/openbind_a71ev2a_c1_knitwork_impure_1B07QS4.sdf', '/opt/xchem-fragalysis-2/maxwin/BulkDock/OUTPUTS/openbind_a71ev2a_c1_knitwork_impure_1B07X5R.sdf', '/opt/xchem-fragalysis-2/maxwin/openbind-hippo/a71ev2a/openbind_a71ev2a_c1_scaffold_products.sdf', '/opt/xchem-fragalysis-2/maxwin/openbind-hippo/a71ev2a/cycle_01/bulkdock/openbind_a71ev2a_c1_scaffold_products.sdf', '/opt/xchem-fragalysis-2/maxwin/openbind-hippo/a71ev2a/cycle_01/bulkdock/openbind_a71ev2a_c1_scaffolds.sdf']

>  <fragmenstein_runtime>  (1044) 
5.400589

$$$$
C37377-P54
     RDKit          3D

 19 21  0  0  0  0  0  0  0  0999 V2000
   20.8326   -1.3207   19.5208 O   0  0  0  0  0  0  0  0  0  0  0  0
   20.5868   -2.3400   19.0143 C   0  0  0  0  0  0  0  0  0  0  0  0
   21.4655   -3.2625   18.1492 N   0  0  0  0  0  0  0  0  0  0  0  0
   22.8616   -3.1710   17.8037 C   0  0  0  0  0  0  0  0  0  0  0  0
   23.1857   -3.9241   16.5246 C   0  0  0  0  0  0  0  0  0  0  0  0
   24.6523   -3.8171   16.2059 C   0  0  2  0  0  0  0  0  0  0  0  0
   25.1991   -4.2737   14.7948 C   0  0  0  0  0  0  0  0  0  0  0  0
   26.4343   -3.4856   15.3540 C   0  0  2  0  0  0  0  0  0  0  0  0
   26.8129   -4.2353   16.6394 C   0  0  0  0  0  0  0  0  0  0  0  0
   25.5086   -4.4484   17.2031 O   0  0  0  0  0  0  0  0  0  0  0  0
   25.3454   -2.4525   15.8089 C   0  0  0  0  0  0  0  0  0  0  0  0
   19.2612   -3.0071   19.2115 C   0  0  0  0  0  0  0  0  0  0  0  0
   18.4479   -3.5250   18.1230 C   0  0  0  0  0  0  0  0  0  0  0  0
   17.2591   -4.0577   18.4207 C   0  0  0  0  0  0  0  0  0  0  0  0
   16.1856   -4.8266   17.3553 Cl  0  0  0  0  0  0  0  0  0  0  0  0
   16.8127   -4.1040   19.6966 N   0  0  0  0  0  0  0  0  0  0  0  0
   17.5643   -3.7541   20.7807 C   0  0  0  0  0  0  0  0  0  0  0  0
   17.2191   -4.0031   21.9269 O   0  0  0  0  0  0  0  0  0  0  0  0
   18.8532   -3.0969   20.4889 C   0  0  0  0  0  0  0  0  0  0  0  0
  1  2  2  0
  2  3  1  0
  3  4  1  0
  4  5  1  0
  6  5  1  1
  6  7  1  0
  8  7  1  6
  8  9  1  0
  9 10  1  0
  8 11  1  0
  2 12  1  0
 12 13  1  0
 13 14  2  0
 14 15  1  0
 14 16  1  0
 16 17  1  0
 17 18  2  0
 17 19  1  0
 10  6  1  0
 19 12  2  0
 11  6  1  0
M  END
>  <ref_pdb>  (1045) 
A0341a

>  <subsites>  (1045) 
2 - A3977/A/202/1,4 - A0525/A/246/1

>  <HIPPO Compound ID>  (1045) 
760

>  <energy_score>  (1045) 
-22.682066

>  <fragmenstein_mode>  (1045) 
expansion

>  <scratch_subdir>  (1045) 
/opt/xchem-fragalysis-2/maxwin/BulkDock/SCRATCH/511205/C37377-P54

>  <smiles>  (1045) 
O=C(NCC[C@]12C[C@H](CO1)C2)c1cc(Cl)[nH]c(=O)c1

>  <alias>  (1045) 
C37377-P54

>  <ref_mols>  (1045) 
A0525a,A0341a

>  <inspiration_score>  (1045) 
None

>  <tags>  (1045) 
BulkDock Fragalysis export,fragmenstein_placed,openbind_a71ev2a_c1_knitwork_impure,openbind_a71ev2a_c1_scaffolds

>  <fragmenstein_outcome>  (1045) 
acceptable

>  <fragmenstein_error>  (1045) 


>  <distance_score>  (1045) 
0.918347

>  <inchikey>  (1045) 
VJCYTBKJYKZSPV-UHFFFAOYSA-N

>  <name>  (1045) 
C37377-P54

>  <HIPPO Pose ID>  (1045) 
462477

>  <Energy>  (1045) 
-14.735158

>  <exports>  (1045) 
['/opt/xchem-fragalysis-2/maxwin/BulkDock/OUTPUTS/openbind_a71ev2a_c1_knitwork_impure_165VXJF.sdf', '/opt/xchem-fragalysis-2/maxwin/BulkDock/OUTPUTS/openbind_a71ev2a_c1_knitwork_impure_1B07QS4.sdf', '/opt/xchem-fragalysis-2/maxwin/BulkDock/OUTPUTS/openbind_a71ev2a_c1_knitwork_impure_1B07X5R.sdf', '/opt/xchem-fragalysis-2/maxwin/openbind-hippo/a71ev2a/openbind_a71ev2a_c1_scaffold_products.sdf', '/opt/xchem-fragalysis-2/maxwin/openbind-hippo/a71ev2a/cycle_01/bulkdock/openbind_a71ev2a_c1_scaffold_products.sdf', '/opt/xchem-fragalysis-2/maxwin/openbind-hippo/a71ev2a/cycle_01/bulkdock/openbind_a71ev2a_c1_scaffolds.sdf']

>  <fragmenstein_runtime>  (1045) 
2.503153

$$$$
C1922-P198
     RDKit          3D

 11 12  0  0  0  0  0  0  0  0999 V2000
    6.8275   12.4668   24.6839 C   0  0  0  0  0  0  0  0  0  0  0  0
    7.3702   13.5170   24.1080 N   0  0  0  0  0  0  0  0  0  0  0  0
    8.5312   13.0631   23.5721 C   0  0  0  0  0  0  0  0  0  0  0  0
    9.4059   13.8454   22.9096 N   0  0  0  0  0  0  0  0  0  0  0  0
   10.6293   14.1833   23.6578 C   0  0  0  0  0  0  0  0  0  0  0  0
   11.7874   14.4911   22.7190 C   0  0  0  0  0  0  0  0  0  0  0  0
   11.4667   15.9337   21.6781 S   0  0  0  0  0  0  0  0  0  0  0  0
    9.8473   15.4118   21.0383 C   0  0  0  0  0  0  0  0  0  0  0  0
    8.8697   14.9889   22.1435 C   0  0  0  0  0  0  0  0  0  0  0  0
    8.7003   11.7224   23.8082 C   0  0  0  0  0  0  0  0  0  0  0  0
    7.6113   11.3552   24.5445 N   0  0  0  0  0  0  0  0  0  0  0  0
  1  2  2  0
  2  3  1  0
  3  4  1  0
  4  5  1  0
  5  6  1  0
  6  7  1  0
  7  8  1  0
  8  9  1  0
  3 10  2  0
 10 11  1  0
 11  1  1  0
  9  4  1  0
M  END
>  <ref_pdb>  (1046) 
A3618a

>  <subsites>  (1046) 
1 - Active Site

>  <HIPPO Compound ID>  (1046) 
17612

>  <energy_score>  (1046) 
-21.416717

>  <fragmenstein_mode>  (1046) 
expansion

>  <scratch_subdir>  (1046) 
/opt/xchem-fragalysis-2/maxwin/BulkDock/SCRATCH/511205/C1922-P198

>  <smiles>  (1046) 
c1nc(N2CCSCC2)c[nH]1

>  <alias>  (1046) 
C1922-P198

>  <ref_mols>  (1046) 
A1209a,A3618a

>  <inspiration_score>  (1046) 
None

>  <tags>  (1046) 
BulkDock Fragalysis export,fragmenstein_placed,openbind_a71ev2a_c1_knitwork_impure,openbind_a71ev2a_c1_scaffolds

>  <fragmenstein_outcome>  (1046) 
acceptable

>  <fragmenstein_error>  (1046) 


>  <distance_score>  (1046) 
0.932444

>  <inchikey>  (1046) 
HUQKWYASCUHDLP-UHFFFAOYSA-N

>  <name>  (1046) 
C1922-P198

>  <HIPPO Pose ID>  (1046) 
463062

>  <Energy>  (1046) 
0.834807

>  <exports>  (1046) 
['/opt/xchem-fragalysis-2/maxwin/BulkDock/OUTPUTS/openbind_a71ev2a_c1_knitwork_impure_165VXJF.sdf', '/opt/xchem-fragalysis-2/maxwin/BulkDock/OUTPUTS/openbind_a71ev2a_c1_knitwork_impure_1B07QS4.sdf', '/opt/xchem-fragalysis-2/maxwin/BulkDock/OUTPUTS/openbind_a71ev2a_c1_knitwork_impure_1B07X5R.sdf', '/opt/xchem-fragalysis-2/maxwin/openbind-hippo/a71ev2a/openbind_a71ev2a_c1_scaffold_products.sdf', '/opt/xchem-fragalysis-2/maxwin/openbind-hippo/a71ev2a/cycle_01/bulkdock/openbind_a71ev2a_c1_scaffold_products.sdf', '/opt/xchem-fragalysis-2/maxwin/openbind-hippo/a71ev2a/cycle_01/bulkdock/openbind_a71ev2a_c1_scaffolds.sdf']

>  <fragmenstein_runtime>  (1046) 
1.339945

$$$$
C7479-P497
     RDKit          3D

 23 24  0  0  0  0  0  0  0  0999 V2000
    3.5032   12.3072   18.0891 C   0  0  0  0  0  0  0  0  0  0  0  0
    3.3819   12.4291   19.6069 C   0  0  0  0  0  0  0  0  0  0  0  0
    2.3672   11.4223   20.1471 C   0  0  0  0  0  0  0  0  0  0  0  0
    3.0288   13.8086   20.0180 C   0  0  0  0  0  0  0  0  0  0  0  0
    2.0418   14.4172   19.2983 O   0  0  0  0  0  0  0  0  0  0  0  0
    1.9525   15.6514   19.8406 C   0  0  0  0  0  0  0  0  0  0  0  0
    2.7611   15.8811   20.8530 N   0  0  0  0  0  0  0  0  0  0  0  0
    3.4370   14.6867   21.0082 C   0  0  0  0  0  0  0  0  0  0  0  0
    4.4013   14.4734   22.1307 C   0  0  0  0  0  0  0  0  0  0  0  0
    5.5611   15.3374   21.9380 N   0  0  0  0  0  0  0  0  0  0  0  0
    7.0564   14.7116   22.3667 S   0  0  0  0  0  0  0  0  0  0  0  0
    6.9738   13.3257   21.9313 O   0  0  0  0  0  0  0  0  0  0  0  0
    7.9596   15.5364   21.5923 O   0  0  0  0  0  0  0  0  0  0  0  0
    6.9615   14.9442   23.8799 N   0  0  0  0  0  0  0  0  0  0  0  0
    8.3335   14.7859   24.5641 S   0  0  2  0  0  0  0  0  0  0  0  0
    8.1069   15.3507   26.2373 C   0  0  0  0  0  0  0  0  0  0  0  0
    9.5471   15.4315   24.1068 O   0  0  0  0  0  0  0  0  0  0  0  0
    8.7621   13.0557   24.8295 C   0  0  0  0  0  0  0  0  0  0  0  0
    9.5318   12.4955   23.6394 C   0  0  0  0  0  0  0  0  0  0  0  0
    9.8448   11.0167   23.7345 C   0  0  0  0  0  0  0  0  0  0  0  0
    8.8147   10.1202   24.3951 C   0  0  0  0  0  0  0  0  0  0  0  0
    7.9925   10.7655   25.4958 C   0  0  0  0  0  0  0  0  0  0  0  0
    7.5646   12.1897   25.1873 C   0  0  0  0  0  0  0  0  0  0  0  0
  1  2  1  0
  2  3  1  0
  2  4  1  0
  4  5  1  0
  5  6  1  0
  6  7  2  0
  7  8  1  0
  8  9  1  0
  9 10  1  0
 10 11  1  0
 11 12  2  0
 11 13  2  0
 11 14  1  0
 14 15  2  0
 15 16  1  1
 15 17  2  0
 15 18  1  0
 18 19  1  0
 19 20  1  0
 20 21  1  0
 21 22  1  0
 22 23  1  0
  8  4  2  0
 23 18  1  0
M  END
>  <ref_pdb>  (1047) 
A4877b

>  <subsites>  (1047) 
1 - Active Site

>  <HIPPO Compound ID>  (1047) 
6610

>  <energy_score>  (1047) 
-108.27362

>  <fragmenstein_mode>  (1047) 
expansion

>  <scratch_subdir>  (1047) 
/opt/xchem-fragalysis-2/maxwin/BulkDock/SCRATCH/511205/C7479-P497

>  <smiles>  (1047) 
CC(C)c1ocnc1CNS(=O)(=O)N=[S@](C)(=O)C1CCCCC1

>  <alias>  (1047) 
C7479-P497

>  <ref_mols>  (1047) 
A3623a,A4877b

>  <inspiration_score>  (1047) 
None

>  <tags>  (1047) 
BulkDock Fragalysis export,fragmenstein_placed,openbind_a71ev2a_c1_knitwork_impure,openbind_a71ev2a_c1_scaffolds

>  <fragmenstein_outcome>  (1047) 
acceptable

>  <fragmenstein_error>  (1047) 


>  <distance_score>  (1047) 
0.893416

>  <inchikey>  (1047) 
QMSHCDDWKOOQIQ-UHFFFAOYSA-N

>  <name>  (1047) 
C7479-P497

>  <HIPPO Pose ID>  (1047) 
463177

>  <Energy>  (1047) 
-242.368297

>  <exports>  (1047) 
['/opt/xchem-fragalysis-2/maxwin/BulkDock/OUTPUTS/openbind_a71ev2a_c1_knitwork_impure_165VXJF.sdf', '/opt/xchem-fragalysis-2/maxwin/BulkDock/OUTPUTS/openbind_a71ev2a_c1_knitwork_impure_1B07QS4.sdf', '/opt/xchem-fragalysis-2/maxwin/BulkDock/OUTPUTS/openbind_a71ev2a_c1_knitwork_impure_1B07X5R.sdf', '/opt/xchem-fragalysis-2/maxwin/openbind-hippo/a71ev2a/openbind_a71ev2a_c1_scaffold_products.sdf', '/opt/xchem-fragalysis-2/maxwin/openbind-hippo/a71ev2a/cycle_01/bulkdock/openbind_a71ev2a_c1_scaffold_products.sdf', '/opt/xchem-fragalysis-2/maxwin/openbind-hippo/a71ev2a/cycle_01/bulkdock/openbind_a71ev2a_c1_scaffolds.sdf']

>  <fragmenstein_runtime>  (1047) 
5.596402

$$$$
C6124-P374
     RDKit          3D

 19 21  0  0  0  0  0  0  0  0999 V2000
    6.1144   15.7974   30.1385 C   0  0  0  0  0  0  0  0  0  0  0  0
    6.9865   15.7865   28.8663 C   0  0  0  0  0  0  0  0  0  0  0  0
    8.2432   14.9509   29.1874 C   0  0  0  0  0  0  0  0  0  0  0  0
    7.4279   17.2259   28.5650 C   0  0  0  0  0  0  0  0  0  0  0  0
    8.5833   17.5645   28.3541 O   0  0  0  0  0  0  0  0  0  0  0  0
    6.4225   18.1276   28.4958 O   0  0  0  0  0  0  0  0  0  0  0  0
    6.2139   15.2651   27.6188 C   0  0  1  0  0  0  0  0  0  0  0  0
    7.0732   15.1766   26.3262 C   0  0  0  0  0  0  0  0  0  0  0  0
    7.4698   13.7636   26.1287 N   0  0  0  0  0  0  0  0  0  0  0  0
    8.0791   13.4339   24.8676 C   0  0  0  0  0  0  0  0  0  0  0  0
    8.7633   12.0511   24.7731 C   0  0  0  0  0  0  0  0  0  0  0  0
    9.9334   12.7460   24.0516 C   0  0  0  0  0  0  0  0  0  0  0  0
    9.5036   14.0450   24.7523 C   0  0  0  0  0  0  0  0  0  0  0  0
    6.4381   13.0480   26.7928 C   0  0  0  0  0  0  0  0  0  0  0  0
    6.1312   11.7033   26.6751 C   0  0  0  0  0  0  0  0  0  0  0  0
    5.1043   11.1630   27.4556 C   0  0  0  0  0  0  0  0  0  0  0  0
    4.3728   11.9752   28.3291 C   0  0  0  0  0  0  0  0  0  0  0  0
    4.6668   13.3341   28.4379 C   0  0  0  0  0  0  0  0  0  0  0  0
    5.7107   13.8506   27.6806 C   0  0  0  0  0  0  0  0  0  0  0  0
  1  2  1  0
  2  3  1  0
  2  4  1  0
  4  5  2  0
  4  6  1  0
  7  2  1  1
  7  8  1  0
  8  9  1  0
  9 10  1  0
 10 11  1  0
 11 12  1  0
 12 13  1  0
  9 14  1  0
 14 15  2  0
 15 16  1  0
 16 17  2  0
 17 18  1  0
 18 19  2  0
 19  7  1  0
 13 10  1  0
 19 14  1  0
M  END
>  <ref_pdb>  (1048) 
A4463a

>  <subsites>  (1048) 
1 - Active Site

>  <HIPPO Compound ID>  (1048) 
92920

>  <energy_score>  (1048) 
-39.1097

>  <fragmenstein_mode>  (1048) 
expansion

>  <scratch_subdir>  (1048) 
/opt/xchem-fragalysis-2/maxwin/BulkDock/SCRATCH/511205/C6124-P374

>  <smiles>  (1048) 
CC(C)(C(=O)O)[C@H]1CN(C2CCC2)c2ccccc21

>  <alias>  (1048) 
C6124-P374

>  <ref_mols>  (1048) 
A1778a,A4463a

>  <inspiration_score>  (1048) 
None

>  <tags>  (1048) 
BulkDock Fragalysis export,fragmenstein_placed,openbind_a71ev2a_c1_knitwork_impure,openbind_a71ev2a_c1_scaffolds

>  <fragmenstein_outcome>  (1048) 
acceptable

>  <fragmenstein_error>  (1048) 


>  <distance_score>  (1048) 
0.927793

>  <inchikey>  (1048) 
IZKZLQCBDVJIRW-UHFFFAOYSA-N

>  <name>  (1048) 
C6124-P374

>  <HIPPO Pose ID>  (1048) 
463285

>  <Energy>  (1048) 
26.549125

>  <exports>  (1048) 
['/opt/xchem-fragalysis-2/maxwin/BulkDock/OUTPUTS/openbind_a71ev2a_c1_knitwork_impure_165VXJF.sdf', '/opt/xchem-fragalysis-2/maxwin/BulkDock/OUTPUTS/openbind_a71ev2a_c1_knitwork_impure_1B07QS4.sdf', '/opt/xchem-fragalysis-2/maxwin/BulkDock/OUTPUTS/openbind_a71ev2a_c1_knitwork_impure_1B07X5R.sdf', '/opt/xchem-fragalysis-2/maxwin/openbind-hippo/a71ev2a/openbind_a71ev2a_c1_scaffold_products.sdf', '/opt/xchem-fragalysis-2/maxwin/openbind-hippo/a71ev2a/cycle_01/bulkdock/openbind_a71ev2a_c1_scaffold_products.sdf', '/opt/xchem-fragalysis-2/maxwin/openbind-hippo/a71ev2a/cycle_01/bulkdock/openbind_a71ev2a_c1_scaffolds.sdf']

>  <fragmenstein_runtime>  (1048) 
6.342105

$$$$
C90727-P22
     RDKit          3D

 11 11  0  0  0  0  0  0  0  0999 V2000
    5.0421   14.3382   26.9725 C   0  0  0  0  0  0  0  0  0  0  0  0
    6.2887   14.1905   26.0694 C   0  0  0  0  0  0  0  0  0  0  0  0
    7.4604   14.9019   26.7674 C   0  0  0  0  0  0  0  0  0  0  0  0
    5.9892   14.8533   24.7059 C   0  0  0  0  0  0  0  0  0  0  0  0
    6.5879   12.7009   25.7961 C   0  0  2  0  0  0  0  0  0  0  0  0
    6.5236   11.8147   27.0311 C   0  0  0  0  0  0  0  0  0  0  0  0
    6.4880   10.3943   26.5394 C   0  0  0  0  0  0  0  0  0  0  0  0
    7.5711   10.1038   25.6324 N   0  0  0  0  0  0  0  0  0  0  0  0
    8.1823   10.9761   24.7887 C   0  0  0  0  0  0  0  0  0  0  0  0
    8.9782   10.5548   23.9534 O   0  0  0  0  0  0  0  0  0  0  0  0
    7.9023   12.4422   25.0215 C   0  0  0  0  0  0  0  0  0  0  0  0
  1  2  1  0
  2  3  1  0
  2  4  1  0
  5  2  1  1
  5  6  1  0
  6  7  1  0
  7  8  1  0
  8  9  1  0
  9 10  2  0
  9 11  1  0
 11  5  1  0
M  END
>  <ref_pdb>  (1049) 
A0528a

>  <subsites>  (1049) 
1 - Active Site

>  <HIPPO Compound ID>  (1049) 
28323

>  <energy_score>  (1049) 
-22.708181

>  <fragmenstein_mode>  (1049) 
expansion

>  <scratch_subdir>  (1049) 
/opt/xchem-fragalysis-2/maxwin/BulkDock/SCRATCH/511205/C90727-P22

>  <smiles>  (1049) 
CC(C)(C)[C@@H]1CCNC(=O)C1

>  <alias>  (1049) 
C90727-P22

>  <ref_mols>  (1049) 
A4311a,A0528a

>  <inspiration_score>  (1049) 
None

>  <tags>  (1049) 
BulkDock Fragalysis export,fragmenstein_placed,openbind_a71ev2a_c1_knitwork_impure,openbind_a71ev2a_c1_scaffolds

>  <fragmenstein_outcome>  (1049) 
acceptable

>  <fragmenstein_error>  (1049) 


>  <distance_score>  (1049) 
0.999992

>  <inchikey>  (1049) 
XRCDSEZPXYCOLD-UHFFFAOYSA-N

>  <name>  (1049) 
C90727-P22

>  <HIPPO Pose ID>  (1049) 
463852

>  <Energy>  (1049) 
6.290612

>  <exports>  (1049) 
['/opt/xchem-fragalysis-2/maxwin/BulkDock/OUTPUTS/openbind_a71ev2a_c1_knitwork_impure_165VXJF.sdf', '/opt/xchem-fragalysis-2/maxwin/BulkDock/OUTPUTS/openbind_a71ev2a_c1_knitwork_impure_1B07QS4.sdf', '/opt/xchem-fragalysis-2/maxwin/BulkDock/OUTPUTS/openbind_a71ev2a_c1_knitwork_impure_1B07X5R.sdf', '/opt/xchem-fragalysis-2/maxwin/openbind-hippo/a71ev2a/openbind_a71ev2a_c1_scaffold_products.sdf', '/opt/xchem-fragalysis-2/maxwin/openbind-hippo/a71ev2a/cycle_01/bulkdock/openbind_a71ev2a_c1_scaffold_products.sdf', '/opt/xchem-fragalysis-2/maxwin/openbind-hippo/a71ev2a/cycle_01/bulkdock/openbind_a71ev2a_c1_scaffolds.sdf']

>  <fragmenstein_runtime>  (1049) 
2.182969

$$$$
C90672-P296
     RDKit          3D

 11 12  0  0  0  0  0  0  0  0999 V2000
    4.8916   13.5434   26.7957 C   0  0  0  0  0  0  0  0  0  0  0  0
    6.2068   13.8840   26.0609 C   0  0  0  0  0  0  0  0  0  0  0  0
    7.1206   14.6083   27.0684 C   0  0  0  0  0  0  0  0  0  0  0  0
    5.8548   14.8701   24.9293 C   0  0  0  0  0  0  0  0  0  0  0  0
    6.8762   12.6073   25.4255 C   0  0  2  0  0  0  0  0  0  0  0  0
    6.8103   11.3802   26.3422 C   0  0  0  0  0  0  0  0  0  0  0  0
    7.3170   10.1050   25.6907 C   0  0  0  0  0  0  0  0  0  0  0  0
    8.5428   10.2574   24.8600 C   0  0  1  0  0  0  0  0  0  0  0  0
    8.3385   10.8361   23.5682 O   0  0  0  0  0  0  0  0  0  0  0  0
    9.0522   11.6294   24.4951 C   0  0  1  0  0  0  0  0  0  0  0  0
    8.3391   12.8498   24.9757 C   0  0  0  0  0  0  0  0  0  0  0  0
  1  2  1  0
  2  3  1  0
  2  4  1  0
  5  2  1  1
  5  6  1  0
  6  7  1  0
  8  7  1  1
  8  9  1  0
  9 10  1  0
 10 11  1  1
 11  5  1  0
 10  8  1  0
M  END
>  <ref_pdb>  (1050) 
A4311a

>  <subsites>  (1050) 
1 - Active Site

>  <HIPPO Compound ID>  (1050) 
92925

>  <energy_score>  (1050) 
-36.349965

>  <fragmenstein_mode>  (1050) 
expansion

>  <scratch_subdir>  (1050) 
/opt/xchem-fragalysis-2/maxwin/BulkDock/SCRATCH/511205/C90672-P296

>  <smiles>  (1050) 
CC(C)(C)[C@@H]1CC[C@H]2O[C@H]2C1

>  <alias>  (1050) 
C90672-P296

>  <ref_mols>  (1050) 
A4311a,A0528a

>  <inspiration_score>  (1050) 
None

>  <tags>  (1050) 
BulkDock Fragalysis export,fragmenstein_placed,openbind_a71ev2a_c1_knitwork_impure,openbind_a71ev2a_c1_scaffolds

>  <fragmenstein_outcome>  (1050) 
acceptable

>  <fragmenstein_error>  (1050) 


>  <distance_score>  (1050) 
0.955809

>  <inchikey>  (1050) 
DVPZBLCJPRLATH-UHFFFAOYSA-N

>  <name>  (1050) 
C90672-P296

>  <HIPPO Pose ID>  (1050) 
463892

>  <Energy>  (1050) 
35.260595

>  <exports>  (1050) 
['/opt/xchem-fragalysis-2/maxwin/BulkDock/OUTPUTS/openbind_a71ev2a_c1_knitwork_impure_165VXJF.sdf', '/opt/xchem-fragalysis-2/maxwin/BulkDock/OUTPUTS/openbind_a71ev2a_c1_knitwork_impure_1B07QS4.sdf', '/opt/xchem-fragalysis-2/maxwin/BulkDock/OUTPUTS/openbind_a71ev2a_c1_knitwork_impure_1B07X5R.sdf', '/opt/xchem-fragalysis-2/maxwin/openbind-hippo/a71ev2a/openbind_a71ev2a_c1_scaffold_products.sdf', '/opt/xchem-fragalysis-2/maxwin/openbind-hippo/a71ev2a/cycle_01/bulkdock/openbind_a71ev2a_c1_scaffold_products.sdf', '/opt/xchem-fragalysis-2/maxwin/openbind-hippo/a71ev2a/cycle_01/bulkdock/openbind_a71ev2a_c1_scaffolds.sdf']

>  <fragmenstein_runtime>  (1050) 
2.553565

$$$$
C90689-P296
     RDKit          3D

 10 10  0  0  0  0  0  0  0  0999 V2000
    5.7337   14.4516   24.7445 C   0  0  0  0  0  0  0  0  0  0  0  0
    6.1571   14.1900   26.1851 C   0  0  0  0  0  0  0  0  0  0  0  0
    5.3578   13.0564   26.8296 C   0  0  0  0  0  0  0  0  0  0  0  0
    7.6794   14.0653   26.3727 C   0  0  0  0  0  0  0  0  0  0  0  0
    8.5086   13.0390   25.5750 C   0  0  1  0  0  0  0  0  0  0  0  0
    7.8574   11.7220   25.1947 C   0  0  0  0  0  0  0  0  0  0  0  0
    8.9895   10.9280   24.0251 S   0  0  0  0  0  0  0  0  0  0  0  0
    9.7161   12.4753   23.4207 C   0  0  0  0  0  0  0  0  0  0  0  0
    9.1547   13.5560   24.3037 C   0  0  0  0  0  0  0  0  0  0  0  0
    9.3283   14.7456   24.0626 O   0  0  0  0  0  0  0  0  0  0  0  0
  1  2  1  0
  2  3  1  0
  2  4  1  0
  5  4  1  6
  5  6  1  0
  6  7  1  0
  7  8  1  0
  8  9  1  0
  9 10  2  0
  9  5  1  0
M  END
>  <ref_pdb>  (1051) 
A4311a

>  <subsites>  (1051) 
1 - Active Site

>  <HIPPO Compound ID>  (1051) 
4658

>  <energy_score>  (1051) 
-17.761523

>  <fragmenstein_mode>  (1051) 
expansion

>  <scratch_subdir>  (1051) 
/opt/xchem-fragalysis-2/maxwin/BulkDock/SCRATCH/511205/C90689-P296

>  <smiles>  (1051) 
CC(C)C[C@H]1CSCC1=O

>  <alias>  (1051) 
C90689-P296

>  <ref_mols>  (1051) 
A4311a,A0528a

>  <inspiration_score>  (1051) 
None

>  <tags>  (1051) 
BulkDock Fragalysis export,fragmenstein_placed,openbind_a71ev2a_c1_knitwork_impure,openbind_a71ev2a_c1_scaffolds

>  <fragmenstein_outcome>  (1051) 
acceptable

>  <fragmenstein_error>  (1051) 


>  <distance_score>  (1051) 
0.784423

>  <inchikey>  (1051) 
HWBLWNNWIGXBNO-UHFFFAOYSA-N

>  <name>  (1051) 
C90689-P296

>  <HIPPO Pose ID>  (1051) 
463902

>  <Energy>  (1051) 
26.647672

>  <exports>  (1051) 
['/opt/xchem-fragalysis-2/maxwin/BulkDock/OUTPUTS/openbind_a71ev2a_c1_knitwork_impure_165VXJF.sdf', '/opt/xchem-fragalysis-2/maxwin/BulkDock/OUTPUTS/openbind_a71ev2a_c1_knitwork_impure_1B07QS4.sdf', '/opt/xchem-fragalysis-2/maxwin/BulkDock/OUTPUTS/openbind_a71ev2a_c1_knitwork_impure_1B07X5R.sdf', '/opt/xchem-fragalysis-2/maxwin/openbind-hippo/a71ev2a/openbind_a71ev2a_c1_scaffold_products.sdf', '/opt/xchem-fragalysis-2/maxwin/openbind-hippo/a71ev2a/cycle_01/bulkdock/openbind_a71ev2a_c1_scaffold_products.sdf', '/opt/xchem-fragalysis-2/maxwin/openbind-hippo/a71ev2a/cycle_01/bulkdock/openbind_a71ev2a_c1_scaffolds.sdf']

>  <fragmenstein_runtime>  (1051) 
32.643378

$$$$
C90691-P22
     RDKit          3D

 11 11  0  0  0  0  0  0  0  0999 V2000
   10.5380   15.0158   21.3528 C   0  0  0  0  0  0  0  0  0  0  0  0
   11.0724   14.9725   22.7758 C   0  0  0  0  0  0  0  0  0  0  0  0
   12.3741   14.1725   22.8544 C   0  0  0  0  0  0  0  0  0  0  0  0
    9.9915   14.5880   23.8059 C   0  0  0  0  0  0  0  0  0  0  0  0
    9.2105   13.2616   23.6580 C   0  0  1  0  0  0  0  0  0  0  0  0
   10.1553   12.0664   23.6656 C   0  0  0  0  0  0  0  0  0  0  0  0
    9.4436   10.7328   23.7176 C   0  0  0  0  0  0  0  0  0  0  0  0
    8.4554   10.6312   24.8439 C   0  0  0  0  0  0  0  0  0  0  0  0
    7.5955   11.8324   25.0833 C   0  0  0  0  0  0  0  0  0  0  0  0
    6.5410   11.7009   25.7120 O   0  0  0  0  0  0  0  0  0  0  0  0
    8.1749   13.1972   24.7978 C   0  0  0  0  0  0  0  0  0  0  0  0
  1  2  1  0
  2  3  1  0
  2  4  1  0
  5  4  1  1
  5  6  1  0
  6  7  1  0
  7  8  1  0
  8  9  1  0
  9 10  2  0
  9 11  1  0
 11  5  1  0
M  END
>  <ref_pdb>  (1052) 
A0528a

>  <subsites>  (1052) 
1 - Active Site

>  <HIPPO Compound ID>  (1052) 
18114

>  <energy_score>  (1052) 
-16.854842

>  <fragmenstein_mode>  (1052) 
expansion

>  <scratch_subdir>  (1052) 
/opt/xchem-fragalysis-2/maxwin/BulkDock/SCRATCH/511205/C90691-P22

>  <smiles>  (1052) 
CC(C)C[C@H]1CCCC(=O)C1

>  <alias>  (1052) 
C90691-P22

>  <ref_mols>  (1052) 
A4311a,A0528a

>  <inspiration_score>  (1052) 
None

>  <tags>  (1052) 
BulkDock Fragalysis export,fragmenstein_placed,openbind_a71ev2a_c1_knitwork_impure,openbind_a71ev2a_c1_scaffolds

>  <fragmenstein_outcome>  (1052) 
acceptable

>  <fragmenstein_error>  (1052) 


>  <distance_score>  (1052) 
0.980663

>  <inchikey>  (1052) 
UHISTFBIGPGRMK-UHFFFAOYSA-N

>  <name>  (1052) 
C90691-P22

>  <HIPPO Pose ID>  (1052) 
463905

>  <Energy>  (1052) 
19.866711

>  <exports>  (1052) 
['/opt/xchem-fragalysis-2/maxwin/BulkDock/OUTPUTS/openbind_a71ev2a_c1_knitwork_impure_165VXJF.sdf', '/opt/xchem-fragalysis-2/maxwin/BulkDock/OUTPUTS/openbind_a71ev2a_c1_knitwork_impure_1B07QS4.sdf', '/opt/xchem-fragalysis-2/maxwin/BulkDock/OUTPUTS/openbind_a71ev2a_c1_knitwork_impure_1B07X5R.sdf', '/opt/xchem-fragalysis-2/maxwin/openbind-hippo/a71ev2a/openbind_a71ev2a_c1_scaffold_products.sdf', '/opt/xchem-fragalysis-2/maxwin/openbind-hippo/a71ev2a/cycle_01/bulkdock/openbind_a71ev2a_c1_scaffold_products.sdf', '/opt/xchem-fragalysis-2/maxwin/openbind-hippo/a71ev2a/cycle_01/bulkdock/openbind_a71ev2a_c1_scaffolds.sdf']

>  <fragmenstein_runtime>  (1052) 
28.509525

$$$$
C9352-P201
     RDKit          3D

 13 13  0  0  0  0  0  0  0  0999 V2000
   10.4832   15.5697   20.4274 C   0  0  0  0  0  0  0  0  0  0  0  0
    9.6118   14.8854   21.3772 C   0  0  0  0  0  0  0  0  0  0  0  0
    8.8755   14.2949   22.1175 C   0  0  0  0  0  0  0  0  0  0  0  0
    7.9040   13.5443   22.8781 C   0  0  0  0  0  0  0  0  0  0  0  0
    6.9231   13.1365   22.2651 O   0  0  0  0  0  0  0  0  0  0  0  0
    8.1569   13.3460   24.3957 C   0  0  2  0  0  0  0  0  0  0  0  0
    7.8879   14.6812   25.0922 C   0  0  0  0  0  0  0  0  0  0  0  0
    9.5071   12.9637   24.6730 O   0  0  0  0  0  0  0  0  0  0  0  0
    7.1606   12.2548   24.8898 C   0  0  1  0  0  0  0  0  0  0  0  0
    7.6391   10.8343   24.6258 C   0  0  0  0  0  0  0  0  0  0  0  0
    6.7336    9.9755   25.4793 C   0  0  0  0  0  0  0  0  0  0  0  0
    6.0614   10.9268   26.4474 C   0  0  0  0  0  0  0  0  0  0  0  0
    6.8151   12.1755   26.3331 N   0  0  0  0  0  0  0  0  0  0  0  0
  1  2  1  0
  2  3  3  0
  3  4  1  0
  4  5  2  0
  4  6  1  0
  6  7  1  1
  6  8  1  0
  6  9  1  0
  9 10  1  1
 10 11  1  0
 11 12  1  0
 12 13  1  0
 13  9  1  0
M  END
>  <ref_pdb>  (1053) 
A3634a

>  <subsites>  (1053) 
1 - Active Site

>  <HIPPO Compound ID>  (1053) 
22220

>  <energy_score>  (1053) 
-23.45748

>  <fragmenstein_mode>  (1053) 
expansion

>  <scratch_subdir>  (1053) 
/opt/xchem-fragalysis-2/maxwin/BulkDock/SCRATCH/511205/C9352-P201

>  <smiles>  (1053) 
CC#CC(=O)[C@](C)(O)[C@H]1CCCN1

>  <alias>  (1053) 
C9352-P201

>  <ref_mols>  (1053) 
A3634a,A0719a

>  <inspiration_score>  (1053) 
None

>  <tags>  (1053) 
BulkDock Fragalysis export,fragmenstein_placed,openbind_a71ev2a_c1_knitwork_impure,openbind_a71ev2a_c1_scaffolds

>  <fragmenstein_outcome>  (1053) 
acceptable

>  <fragmenstein_error>  (1053) 


>  <distance_score>  (1053) 
0.866385

>  <inchikey>  (1053) 
LDOKSSWQCPKARK-UHFFFAOYSA-N

>  <name>  (1053) 
C9352-P201

>  <HIPPO Pose ID>  (1053) 
463917

>  <Energy>  (1053) 
78.046755

>  <exports>  (1053) 
['/opt/xchem-fragalysis-2/maxwin/BulkDock/OUTPUTS/openbind_a71ev2a_c1_knitwork_impure_165VXJF.sdf', '/opt/xchem-fragalysis-2/maxwin/BulkDock/OUTPUTS/openbind_a71ev2a_c1_knitwork_impure_1B07QS4.sdf', '/opt/xchem-fragalysis-2/maxwin/BulkDock/OUTPUTS/openbind_a71ev2a_c1_knitwork_impure_1B07X5R.sdf', '/opt/xchem-fragalysis-2/maxwin/openbind-hippo/a71ev2a/openbind_a71ev2a_c1_scaffold_products.sdf', '/opt/xchem-fragalysis-2/maxwin/openbind-hippo/a71ev2a/cycle_01/bulkdock/openbind_a71ev2a_c1_scaffold_products.sdf', '/opt/xchem-fragalysis-2/maxwin/openbind-hippo/a71ev2a/cycle_01/bulkdock/openbind_a71ev2a_c1_scaffolds.sdf']

>  <fragmenstein_runtime>  (1053) 
1.697531

$$$$
C9353-P201
     RDKit          3D

 16 16  0  0  0  0  0  0  0  0999 V2000
    7.1541   13.1932   22.1887 O   0  0  0  0  0  0  0  0  0  0  0  0
    7.6953   14.1393   23.1395 S   0  0  0  0  0  0  0  0  0  0  0  0
    6.9709   15.3272   23.5249 O   0  0  0  0  0  0  0  0  0  0  0  0
    8.1750   13.2918   24.6429 C   0  0  0  0  0  0  0  0  0  0  0  0
    7.1046   12.2709   24.9941 C   0  0  1  0  0  0  0  0  0  0  0  0
    7.5651   10.8599   24.6683 C   0  0  0  0  0  0  0  0  0  0  0  0
    6.6818    9.9736   25.5153 C   0  0  0  0  0  0  0  0  0  0  0  0
    6.0109   10.8997   26.5086 C   0  0  0  0  0  0  0  0  0  0  0  0
    6.7760   12.1455   26.4286 N   0  0  0  0  0  0  0  0  0  0  0  0
    9.1934   14.6568   22.5622 N   0  0  0  0  0  0  0  0  0  0  0  0
    9.2390   14.9858   21.1090 C   0  0  0  0  0  0  0  0  0  0  0  0
   10.6919   15.1180   20.7107 C   0  0  0  0  0  0  0  0  0  0  0  0
   10.8711   15.2987   19.2268 C   0  0  0  0  0  0  0  0  0  0  0  0
   10.4512   14.2608   18.5001 F   0  0  0  0  0  0  0  0  0  0  0  0
   10.2499   16.4113   18.7846 F   0  0  0  0  0  0  0  0  0  0  0  0
   12.1826   15.3930   18.9614 F   0  0  0  0  0  0  0  0  0  0  0  0
  1  2  2  0
  2  3  2  0
  2  4  1  0
  5  4  1  1
  5  6  1  0
  6  7  1  0
  7  8  1  0
  8  9  1  0
  2 10  1  0
 10 11  1  0
 11 12  1  0
 12 13  1  0
 13 14  1  0
 13 15  1  0
 13 16  1  0
  9  5  1  0
M  END
>  <ref_pdb>  (1054) 
A3634a

>  <subsites>  (1054) 
1 - Active Site

>  <HIPPO Compound ID>  (1054) 
13262

>  <energy_score>  (1054) 
-74.110975

>  <fragmenstein_mode>  (1054) 
expansion

>  <scratch_subdir>  (1054) 
/opt/xchem-fragalysis-2/maxwin/BulkDock/SCRATCH/511205/C9353-P201

>  <smiles>  (1054) 
O=S(=O)(C[C@H]1CCCN1)NCCC(F)(F)F

>  <alias>  (1054) 
C9353-P201

>  <ref_mols>  (1054) 
A3634a,A0719a

>  <inspiration_score>  (1054) 
None

>  <tags>  (1054) 
BulkDock Fragalysis export,fragmenstein_placed,openbind_a71ev2a_c1_knitwork_impure,openbind_a71ev2a_c1_scaffolds

>  <fragmenstein_outcome>  (1054) 
acceptable

>  <fragmenstein_error>  (1054) 


>  <distance_score>  (1054) 
0.832181

>  <inchikey>  (1054) 
ZKAJGRJFQFGLLL-UHFFFAOYSA-N

>  <name>  (1054) 
C9353-P201

>  <HIPPO Pose ID>  (1054) 
463918

>  <Energy>  (1054) 
-68.101678

>  <exports>  (1054) 
['/opt/xchem-fragalysis-2/maxwin/BulkDock/OUTPUTS/openbind_a71ev2a_c1_knitwork_impure_165VXJF.sdf', '/opt/xchem-fragalysis-2/maxwin/BulkDock/OUTPUTS/openbind_a71ev2a_c1_knitwork_impure_1B07QS4.sdf', '/opt/xchem-fragalysis-2/maxwin/BulkDock/OUTPUTS/openbind_a71ev2a_c1_knitwork_impure_1B07X5R.sdf', '/opt/xchem-fragalysis-2/maxwin/openbind-hippo/a71ev2a/openbind_a71ev2a_c1_scaffold_products.sdf', '/opt/xchem-fragalysis-2/maxwin/openbind-hippo/a71ev2a/cycle_01/bulkdock/openbind_a71ev2a_c1_scaffold_products.sdf', '/opt/xchem-fragalysis-2/maxwin/openbind-hippo/a71ev2a/cycle_01/bulkdock/openbind_a71ev2a_c1_scaffolds.sdf']

>  <fragmenstein_runtime>  (1054) 
4.64565

$$$$
C9359-P201
     RDKit          3D

 15 15  0  0  0  0  0  0  0  0999 V2000
   10.6743   15.5311   19.2392 C   0  0  0  0  0  0  0  0  0  0  0  0
   10.6942   15.3427   20.7472 C   0  0  0  0  0  0  0  0  0  0  0  0
    9.3166   14.9604   21.2614 C   0  0  0  0  0  0  0  0  0  0  0  0
    9.3881   14.5213   22.6817 N   0  0  0  0  0  0  0  0  0  0  0  0
    8.3974   13.2251   23.0284 S   0  0  0  0  0  0  0  0  0  0  0  0
    7.2135   13.2979   22.2004 O   0  0  0  0  0  0  0  0  0  0  0  0
    9.2444   12.0582   23.0076 O   0  0  0  0  0  0  0  0  0  0  0  0
    7.9376   13.4870   24.6413 N   0  0  0  0  0  0  0  0  0  0  0  0
    7.6181   14.8924   25.0049 C   0  0  0  0  0  0  0  0  0  0  0  0
    6.4871   15.5157   24.2084 C   0  0  0  0  0  0  0  0  0  0  0  0
    6.8401   12.5143   25.0000 C   0  0  1  0  0  0  0  0  0  0  0  0
    7.3393   11.0807   25.0218 C   0  0  0  0  0  0  0  0  0  0  0  0
    6.3846   10.3505   25.9361 C   0  0  0  0  0  0  0  0  0  0  0  0
    5.5939   11.3476   26.6519 N   0  0  0  0  0  0  0  0  0  0  0  0
    6.1968   12.6552   26.3740 C   0  0  0  0  0  0  0  0  0  0  0  0
  1  2  1  0
  2  3  1  0
  3  4  1  0
  4  5  1  0
  5  6  2  0
  5  7  2  0
  5  8  1  0
  8  9  1  0
  9 10  1  0
 11  8  1  1
 11 12  1  0
 12 13  1  0
 13 14  1  0
 14 15  1  0
 15 11  1  0
M  END
>  <ref_pdb>  (1055) 
A3634a

>  <subsites>  (1055) 
1 - Active Site

>  <HIPPO Compound ID>  (1055) 
8064

>  <energy_score>  (1055) 
-53.520901

>  <fragmenstein_mode>  (1055) 
expansion

>  <scratch_subdir>  (1055) 
/opt/xchem-fragalysis-2/maxwin/BulkDock/SCRATCH/511205/C9359-P201

>  <smiles>  (1055) 
CCCNS(=O)(=O)N(CC)[C@H]1CCNC1

>  <alias>  (1055) 
C9359-P201

>  <ref_mols>  (1055) 
A3634a,A0719a

>  <inspiration_score>  (1055) 
None

>  <tags>  (1055) 
BulkDock Fragalysis export,fragmenstein_placed,openbind_a71ev2a_c1_knitwork_impure,openbind_a71ev2a_c1_scaffolds

>  <fragmenstein_outcome>  (1055) 
acceptable

>  <fragmenstein_error>  (1055) 


>  <distance_score>  (1055) 
0.88999

>  <inchikey>  (1055) 
BNWUDFFUSWDMML-UHFFFAOYSA-N

>  <name>  (1055) 
C9359-P201

>  <HIPPO Pose ID>  (1055) 
463921

>  <Energy>  (1055) 
-152.421721

>  <exports>  (1055) 
['/opt/xchem-fragalysis-2/maxwin/BulkDock/OUTPUTS/openbind_a71ev2a_c1_knitwork_impure_165VXJF.sdf', '/opt/xchem-fragalysis-2/maxwin/BulkDock/OUTPUTS/openbind_a71ev2a_c1_knitwork_impure_1B07QS4.sdf', '/opt/xchem-fragalysis-2/maxwin/BulkDock/OUTPUTS/openbind_a71ev2a_c1_knitwork_impure_1B07X5R.sdf', '/opt/xchem-fragalysis-2/maxwin/openbind-hippo/a71ev2a/openbind_a71ev2a_c1_scaffold_products.sdf', '/opt/xchem-fragalysis-2/maxwin/openbind-hippo/a71ev2a/cycle_01/bulkdock/openbind_a71ev2a_c1_scaffold_products.sdf', '/opt/xchem-fragalysis-2/maxwin/openbind-hippo/a71ev2a/cycle_01/bulkdock/openbind_a71ev2a_c1_scaffolds.sdf']

>  <fragmenstein_runtime>  (1055) 
11.65255

$$$$
C9365-P201
     RDKit          3D

 15 15  0  0  0  0  0  0  0  0999 V2000
   10.4782   15.5634   18.9860 C   0  0  0  0  0  0  0  0  0  0  0  0
    9.7992   15.4579   19.9706 C   0  0  0  0  0  0  0  0  0  0  0  0
    8.9545   15.3066   21.1621 C   0  0  0  0  0  0  0  0  0  0  0  0
    9.4864   14.2589   22.1530 C   0  0  1  0  0  0  0  0  0  0  0  0
   10.7127   14.7206   22.9571 C   0  0  0  0  0  0  0  0  0  0  0  0
   11.8869   15.1944   22.1188 C   0  0  0  0  0  0  0  0  0  0  0  0
    8.3211   13.8501   23.0396 N   0  0  0  0  0  0  0  0  0  0  0  0
    8.7084   12.8955   24.3506 S   0  0  0  0  0  0  0  0  0  0  0  0
    9.5515   11.8382   23.8564 O   0  0  0  0  0  0  0  0  0  0  0  0
    9.0858   13.7521   25.4461 O   0  0  0  0  0  0  0  0  0  0  0  0
    7.2102   12.2368   24.6840 N   0  0  0  0  0  0  0  0  0  0  0  0
    6.2403   13.0802   25.4252 C   0  0  0  0  0  0  0  0  0  0  0  0
    5.8835   12.2848   26.6726 C   0  0  0  0  0  0  0  0  0  0  0  0
    6.0721   10.8452   26.2548 C   0  0  0  0  0  0  0  0  0  0  0  0
    7.2485   10.8878   25.3047 C   0  0  0  0  0  0  0  0  0  0  0  0
  1  2  3  0
  2  3  1  0
  4  3  1  6
  4  5  1  0
  5  6  1  0
  4  7  1  0
  7  8  1  0
  8  9  2  0
  8 10  2  0
  8 11  1  0
 11 12  1  0
 12 13  1  0
 13 14  1  0
 14 15  1  0
 15 11  1  0
M  END
>  <ref_pdb>  (1056) 
A3634a

>  <subsites>  (1056) 
1 - Active Site

>  <HIPPO Compound ID>  (1056) 
4774

>  <energy_score>  (1056) 
-39.968935

>  <fragmenstein_mode>  (1056) 
expansion

>  <scratch_subdir>  (1056) 
/opt/xchem-fragalysis-2/maxwin/BulkDock/SCRATCH/511205/C9365-P201

>  <smiles>  (1056) 
C#CC[C@@H](CC)NS(=O)(=O)N1CCCC1

>  <alias>  (1056) 
C9365-P201

>  <ref_mols>  (1056) 
A3634a,A0719a

>  <inspiration_score>  (1056) 
None

>  <tags>  (1056) 
BulkDock Fragalysis export,fragmenstein_placed,openbind_a71ev2a_c1_knitwork_impure,openbind_a71ev2a_c1_scaffolds

>  <fragmenstein_outcome>  (1056) 
acceptable

>  <fragmenstein_error>  (1056) 


>  <distance_score>  (1056) 
0.883779

>  <inchikey>  (1056) 
PYBOZBRLIMDYOY-UHFFFAOYSA-N

>  <name>  (1056) 
C9365-P201

>  <HIPPO Pose ID>  (1056) 
463924

>  <Energy>  (1056) 
-156.915467

>  <exports>  (1056) 
['/opt/xchem-fragalysis-2/maxwin/BulkDock/OUTPUTS/openbind_a71ev2a_c1_knitwork_impure_165VXJF.sdf', '/opt/xchem-fragalysis-2/maxwin/BulkDock/OUTPUTS/openbind_a71ev2a_c1_knitwork_impure_1B07QS4.sdf', '/opt/xchem-fragalysis-2/maxwin/BulkDock/OUTPUTS/openbind_a71ev2a_c1_knitwork_impure_1B07X5R.sdf', '/opt/xchem-fragalysis-2/maxwin/openbind-hippo/a71ev2a/openbind_a71ev2a_c1_scaffold_products.sdf', '/opt/xchem-fragalysis-2/maxwin/openbind-hippo/a71ev2a/cycle_01/bulkdock/openbind_a71ev2a_c1_scaffold_products.sdf', '/opt/xchem-fragalysis-2/maxwin/openbind-hippo/a71ev2a/cycle_01/bulkdock/openbind_a71ev2a_c1_scaffolds.sdf']

>  <fragmenstein_runtime>  (1056) 
13.499469

$$$$
C9371-P201
     RDKit          3D

 14 14  0  0  0  0  0  0  0  0999 V2000
   10.5159   15.5578   19.0284 C   0  0  0  0  0  0  0  0  0  0  0  0
   10.3826   15.5759   20.3599 C   0  0  0  0  0  0  0  0  0  0  0  0
    9.1215   15.2002   21.0776 C   0  0  0  0  0  0  0  0  0  0  0  0
    9.4307   14.2811   22.2504 C   0  0  0  0  0  0  0  0  0  0  0  0
    8.1697   13.6663   22.8306 C   0  0  0  0  0  0  0  0  0  0  0  0
    7.2103   13.3816   22.1072 O   0  0  0  0  0  0  0  0  0  0  0  0
    8.1733   13.3672   24.3555 C   0  0  2  0  0  0  0  0  0  0  0  0
    7.8609   14.6868   25.0621 C   0  0  0  0  0  0  0  0  0  0  0  0
    9.4856   12.9690   24.7571 O   0  0  0  0  0  0  0  0  0  0  0  0
    7.1397   12.2668   24.6896 C   0  0  1  0  0  0  0  0  0  0  0  0
    7.6636   10.8406   24.6846 C   0  0  0  0  0  0  0  0  0  0  0  0
    6.6645   10.0601   25.5085 C   0  0  0  0  0  0  0  0  0  0  0  0
    5.8333   11.0176   26.2248 N   0  0  0  0  0  0  0  0  0  0  0  0
    6.3947   12.3505   26.0166 C   0  0  0  0  0  0  0  0  0  0  0  0
  1  2  2  0
  2  3  1  0
  3  4  1  0
  4  5  1  0
  5  6  2  0
  5  7  1  0
  7  8  1  1
  7  9  1  0
  7 10  1  0
 10 11  1  1
 11 12  1  0
 12 13  1  0
 13 14  1  0
 14 10  1  0
M  END
>  <ref_pdb>  (1057) 
A3634a

>  <subsites>  (1057) 
1 - Active Site

>  <HIPPO Compound ID>  (1057) 
5356

>  <energy_score>  (1057) 
-9.982802

>  <fragmenstein_mode>  (1057) 
expansion

>  <scratch_subdir>  (1057) 
/opt/xchem-fragalysis-2/maxwin/BulkDock/SCRATCH/511205/C9371-P201

>  <smiles>  (1057) 
C=CCCC(=O)[C@](C)(O)[C@H]1CCNC1

>  <alias>  (1057) 
C9371-P201

>  <ref_mols>  (1057) 
A3634a,A0719a

>  <inspiration_score>  (1057) 
None

>  <tags>  (1057) 
BulkDock Fragalysis export,fragmenstein_placed,openbind_a71ev2a_c1_knitwork_impure,openbind_a71ev2a_c1_scaffolds

>  <fragmenstein_outcome>  (1057) 
acceptable

>  <fragmenstein_error>  (1057) 


>  <distance_score>  (1057) 
0.913074

>  <inchikey>  (1057) 
TXUZFYUKGKNOMI-UHFFFAOYSA-N

>  <name>  (1057) 
C9371-P201

>  <HIPPO Pose ID>  (1057) 
463928

>  <Energy>  (1057) 
51.506744

>  <exports>  (1057) 
['/opt/xchem-fragalysis-2/maxwin/BulkDock/OUTPUTS/openbind_a71ev2a_c1_knitwork_impure_165VXJF.sdf', '/opt/xchem-fragalysis-2/maxwin/BulkDock/OUTPUTS/openbind_a71ev2a_c1_knitwork_impure_1B07QS4.sdf', '/opt/xchem-fragalysis-2/maxwin/BulkDock/OUTPUTS/openbind_a71ev2a_c1_knitwork_impure_1B07X5R.sdf', '/opt/xchem-fragalysis-2/maxwin/openbind-hippo/a71ev2a/openbind_a71ev2a_c1_scaffold_products.sdf', '/opt/xchem-fragalysis-2/maxwin/openbind-hippo/a71ev2a/cycle_01/bulkdock/openbind_a71ev2a_c1_scaffold_products.sdf', '/opt/xchem-fragalysis-2/maxwin/openbind-hippo/a71ev2a/cycle_01/bulkdock/openbind_a71ev2a_c1_scaffolds.sdf']

>  <fragmenstein_runtime>  (1057) 
3.264676

$$$$
C9372-P201
     RDKit          3D

 16 16  0  0  0  0  0  0  0  0999 V2000
   10.1164   13.3108   24.8371 O   0  0  0  0  0  0  0  0  0  0  0  0
    8.6982   13.5594   24.6800 S   0  0  0  0  0  0  0  0  0  0  0  0
    8.0735   14.6828   25.3405 O   0  0  0  0  0  0  0  0  0  0  0  0
    8.4064   13.7730   23.0322 N   0  0  0  0  0  0  0  0  0  0  0  0
    9.6221   14.3470   22.3756 C   0  0  0  0  0  0  0  0  0  0  0  0
    9.3461   14.8392   20.9713 C   0  0  0  0  0  0  0  0  0  0  0  0
   10.6610   15.3182   20.3465 C   0  0  0  0  0  0  0  0  0  0  0  0
   10.6368   15.3942   18.8370 C   0  0  0  0  0  0  0  0  0  0  0  0
   10.5107   14.1773   18.2873 F   0  0  0  0  0  0  0  0  0  0  0  0
    9.6489   16.1989   18.4024 F   0  0  0  0  0  0  0  0  0  0  0  0
   11.7894   15.8706   18.3544 F   0  0  0  0  0  0  0  0  0  0  0  0
    7.9075   12.0928   25.1897 C   0  0  2  0  0  0  0  0  0  0  0  0
    7.8360   10.9291   24.2644 C   0  0  0  0  0  0  0  0  0  0  0  0
    6.9914    9.9920   25.1065 C   0  0  0  0  0  0  0  0  0  0  0  0
    6.0579   10.8293   25.8749 N   0  0  0  0  0  0  0  0  0  0  0  0
    6.5191   12.2234   25.7512 C   0  0  0  0  0  0  0  0  0  0  0  0
  1  2  2  0
  2  3  2  0
  2  4  1  0
  4  5  1  0
  5  6  1  0
  6  7  1  0
  7  8  1  0
  8  9  1  0
  8 10  1  0
  8 11  1  0
 12  2  1  6
 12 13  1  0
 13 14  1  0
 14 15  1  0
 15 16  1  0
 16 12  1  0
M  END
>  <ref_pdb>  (1058) 
A3634a

>  <subsites>  (1058) 
1 - Active Site

>  <HIPPO Compound ID>  (1058) 
31916

>  <energy_score>  (1058) 
-43.965864

>  <fragmenstein_mode>  (1058) 
expansion

>  <scratch_subdir>  (1058) 
/opt/xchem-fragalysis-2/maxwin/BulkDock/SCRATCH/511205/C9372-P201

>  <smiles>  (1058) 
O=S(=O)(NCCCC(F)(F)F)[C@@H]1CCNC1

>  <alias>  (1058) 
C9372-P201

>  <ref_mols>  (1058) 
A3634a,A0719a

>  <inspiration_score>  (1058) 
None

>  <tags>  (1058) 
BulkDock Fragalysis export,fragmenstein_placed,openbind_a71ev2a_c1_knitwork_impure,openbind_a71ev2a_c1_scaffolds

>  <fragmenstein_outcome>  (1058) 
acceptable

>  <fragmenstein_error>  (1058) 


>  <distance_score>  (1058) 
0.841975

>  <inchikey>  (1058) 
QUEIHHGXYURJMF-UHFFFAOYSA-N

>  <name>  (1058) 
C9372-P201

>  <HIPPO Pose ID>  (1058) 
463929

>  <Energy>  (1058) 
-59.811543

>  <exports>  (1058) 
['/opt/xchem-fragalysis-2/maxwin/BulkDock/OUTPUTS/openbind_a71ev2a_c1_knitwork_impure_165VXJF.sdf', '/opt/xchem-fragalysis-2/maxwin/BulkDock/OUTPUTS/openbind_a71ev2a_c1_knitwork_impure_1B07QS4.sdf', '/opt/xchem-fragalysis-2/maxwin/BulkDock/OUTPUTS/openbind_a71ev2a_c1_knitwork_impure_1B07X5R.sdf', '/opt/xchem-fragalysis-2/maxwin/openbind-hippo/a71ev2a/openbind_a71ev2a_c1_scaffold_products.sdf', '/opt/xchem-fragalysis-2/maxwin/openbind-hippo/a71ev2a/cycle_01/bulkdock/openbind_a71ev2a_c1_scaffold_products.sdf', '/opt/xchem-fragalysis-2/maxwin/openbind-hippo/a71ev2a/cycle_01/bulkdock/openbind_a71ev2a_c1_scaffolds.sdf']

>  <fragmenstein_runtime>  (1058) 
52.541193

$$$$
C9379-P201
     RDKit          3D

 14 14  0  0  0  0  0  0  0  0999 V2000
   11.3706   15.1524   18.5081 C   0  0  0  0  0  0  0  0  0  0  0  0
   10.2403   15.7161   19.3366 C   0  0  0  0  0  0  0  0  0  0  0  0
   10.2916   15.1650   20.7537 C   0  0  0  0  0  0  0  0  0  0  0  0
    8.9009   15.0313   21.3487 C   0  0  0  0  0  0  0  0  0  0  0  0
    8.9633   14.3047   22.6908 C   0  0  0  0  0  0  0  0  0  0  0  0
    7.5700   14.1478   23.2883 C   0  0  1  0  0  0  0  0  0  0  0  0
    6.7781   13.3536   22.4008 O   0  0  0  0  0  0  0  0  0  0  0  0
    7.6640   13.6060   24.7321 C   0  0  0  0  0  0  0  0  0  0  0  0
    8.4043   14.1156   25.5772 O   0  0  0  0  0  0  0  0  0  0  0  0
    6.7784   12.4202   25.0495 C   0  0  1  0  0  0  0  0  0  0  0  0
    7.5050   11.1197   24.8227 C   0  0  0  0  0  0  0  0  0  0  0  0
    6.7018   10.1337   25.6304 C   0  0  0  0  0  0  0  0  0  0  0  0
    5.9550   10.9617   26.6630 C   0  0  0  0  0  0  0  0  0  0  0  0
    6.3087   12.3640   26.4497 N   0  0  0  0  0  0  0  0  0  0  0  0
  1  2  1  0
  2  3  1  0
  3  4  1  0
  4  5  1  0
  5  6  1  0
  6  7  1  6
  6  8  1  0
  8  9  2  0
 10  8  1  1
 10 11  1  0
 11 12  1  0
 12 13  1  0
 13 14  1  0
 14 10  1  0
M  END
>  <ref_pdb>  (1059) 
A3634a

>  <subsites>  (1059) 
1 - Active Site

>  <HIPPO Compound ID>  (1059) 
13635

>  <energy_score>  (1059) 
-9.390796

>  <fragmenstein_mode>  (1059) 
expansion

>  <scratch_subdir>  (1059) 
/opt/xchem-fragalysis-2/maxwin/BulkDock/SCRATCH/511205/C9379-P201

>  <smiles>  (1059) 
CCCCC[C@@H](O)C(=O)[C@H]1CCCN1

>  <alias>  (1059) 
C9379-P201

>  <ref_mols>  (1059) 
A3634a,A0719a

>  <inspiration_score>  (1059) 
None

>  <tags>  (1059) 
BulkDock Fragalysis export,fragmenstein_placed,openbind_a71ev2a_c1_knitwork_impure,openbind_a71ev2a_c1_scaffolds

>  <fragmenstein_outcome>  (1059) 
acceptable

>  <fragmenstein_error>  (1059) 


>  <distance_score>  (1059) 
0.981034

>  <inchikey>  (1059) 
DSHXVVHRVRWWBZ-UHFFFAOYSA-N

>  <name>  (1059) 
C9379-P201

>  <HIPPO Pose ID>  (1059) 
463936

>  <Energy>  (1059) 
67.747459

>  <exports>  (1059) 
['/opt/xchem-fragalysis-2/maxwin/BulkDock/OUTPUTS/openbind_a71ev2a_c1_knitwork_impure_165VXJF.sdf', '/opt/xchem-fragalysis-2/maxwin/BulkDock/OUTPUTS/openbind_a71ev2a_c1_knitwork_impure_1B07QS4.sdf', '/opt/xchem-fragalysis-2/maxwin/BulkDock/OUTPUTS/openbind_a71ev2a_c1_knitwork_impure_1B07X5R.sdf', '/opt/xchem-fragalysis-2/maxwin/openbind-hippo/a71ev2a/openbind_a71ev2a_c1_scaffold_products.sdf', '/opt/xchem-fragalysis-2/maxwin/openbind-hippo/a71ev2a/cycle_01/bulkdock/openbind_a71ev2a_c1_scaffold_products.sdf', '/opt/xchem-fragalysis-2/maxwin/openbind-hippo/a71ev2a/cycle_01/bulkdock/openbind_a71ev2a_c1_scaffolds.sdf']

>  <fragmenstein_runtime>  (1059) 
3.62281

$$$$
C9386-P201
     RDKit          3D

 14 14  0  0  0  0  0  0  0  0999 V2000
   10.0925   15.0262   20.0335 C   0  0  0  0  0  0  0  0  0  0  0  0
    9.0537   14.6632   20.8093 C   0  0  0  0  0  0  0  0  0  0  0  0
    8.9517   14.7822   22.3082 C   0  0  0  0  0  0  0  0  0  0  0  0
   10.3174   15.2223   22.8636 C   0  0  0  0  0  0  0  0  0  0  0  0
    7.7969   15.7778   22.5137 C   0  0  0  0  0  0  0  0  0  0  0  0
    8.4689   13.4775   22.9056 N   0  0  0  0  0  0  0  0  0  0  0  0
    8.9111   13.2555   24.5146 S   0  0  0  0  0  0  0  0  0  0  0  0
   10.2996   12.8555   24.5285 O   0  0  0  0  0  0  0  0  0  0  0  0
    8.4697   14.4156   25.2613 O   0  0  0  0  0  0  0  0  0  0  0  0
    8.0081   11.9129   25.1378 C   0  0  2  0  0  0  0  0  0  0  0  0
    7.8928   10.6605   24.3436 C   0  0  0  0  0  0  0  0  0  0  0  0
    6.8833    9.9135   25.1901 C   0  0  0  0  0  0  0  0  0  0  0  0
    6.0515   10.9051   25.8911 N   0  0  0  0  0  0  0  0  0  0  0  0
    6.6111   12.2300   25.5823 C   0  0  0  0  0  0  0  0  0  0  0  0
  1  2  2  0
  2  3  1  0
  3  4  1  0
  3  5  1  0
  3  6  1  0
  6  7  1  0
  7  8  2  0
  7  9  2  0
 10  7  1  6
 10 11  1  0
 11 12  1  0
 12 13  1  0
 13 14  1  0
 14 10  1  0
M  END
>  <ref_pdb>  (1060) 
A3634a

>  <subsites>  (1060) 
1 - Active Site

>  <HIPPO Compound ID>  (1060) 
22036

>  <energy_score>  (1060) 
-28.910814

>  <fragmenstein_mode>  (1060) 
expansion

>  <scratch_subdir>  (1060) 
/opt/xchem-fragalysis-2/maxwin/BulkDock/SCRATCH/511205/C9386-P201

>  <smiles>  (1060) 
C=CC(C)(C)NS(=O)(=O)[C@@H]1CCNC1

>  <alias>  (1060) 
C9386-P201

>  <ref_mols>  (1060) 
A3634a,A0719a

>  <inspiration_score>  (1060) 
None

>  <tags>  (1060) 
BulkDock Fragalysis export,fragmenstein_placed,openbind_a71ev2a_c1_knitwork_impure,openbind_a71ev2a_c1_scaffolds

>  <fragmenstein_outcome>  (1060) 
acceptable

>  <fragmenstein_error>  (1060) 


>  <distance_score>  (1060) 
0.969757

>  <inchikey>  (1060) 
IXOANNXJRWRLSD-UHFFFAOYSA-N

>  <name>  (1060) 
C9386-P201

>  <HIPPO Pose ID>  (1060) 
463942

>  <Energy>  (1060) 
-50.392883

>  <exports>  (1060) 
['/opt/xchem-fragalysis-2/maxwin/BulkDock/OUTPUTS/openbind_a71ev2a_c1_knitwork_impure_165VXJF.sdf', '/opt/xchem-fragalysis-2/maxwin/BulkDock/OUTPUTS/openbind_a71ev2a_c1_knitwork_impure_1B07QS4.sdf', '/opt/xchem-fragalysis-2/maxwin/BulkDock/OUTPUTS/openbind_a71ev2a_c1_knitwork_impure_1B07X5R.sdf', '/opt/xchem-fragalysis-2/maxwin/openbind-hippo/a71ev2a/openbind_a71ev2a_c1_scaffold_products.sdf', '/opt/xchem-fragalysis-2/maxwin/openbind-hippo/a71ev2a/cycle_01/bulkdock/openbind_a71ev2a_c1_scaffold_products.sdf', '/opt/xchem-fragalysis-2/maxwin/openbind-hippo/a71ev2a/cycle_01/bulkdock/openbind_a71ev2a_c1_scaffolds.sdf']

>  <fragmenstein_runtime>  (1060) 
29.112172

$$$$
C1329-P252
     RDKit          3D

 11 11  0  0  0  0  0  0  0  0999 V2000
    6.3846   13.3632   25.6443 C   0  0  0  0  0  0  0  0  0  0  0  0
    7.5264   13.3287   24.6255 C   0  0  2  0  0  0  0  0  0  0  0  0
    7.0432   13.9015   23.2522 C   0  0  0  0  0  0  0  0  0  0  0  0
    6.9786   13.2626   22.2766 O   0  0  0  0  0  0  0  0  0  0  0  0
    6.6806   15.3828   23.5055 N   0  0  0  0  0  0  0  0  0  0  0  0
    6.2709   16.3687   22.6288 O   0  0  0  0  0  0  0  0  0  0  0  0
    8.1294   11.9501   24.4512 C   0  0  0  0  0  0  0  0  0  0  0  0
    7.6096   10.7522   24.7573 C   0  0  0  0  0  0  0  0  0  0  0  0
    8.4617    9.6247   24.2935 C   0  0  0  0  0  0  0  0  0  0  0  0
    9.7113   10.2982   23.7631 C   0  0  0  0  0  0  0  0  0  0  0  0
    9.4831   11.8065   23.8245 C   0  0  0  0  0  0  0  0  0  0  0  0
  2  1  1  1
  2  3  1  0
  3  4  2  0
  3  5  1  0
  5  6  1  0
  2  7  1  0
  7  8  2  0
  8  9  1  0
  9 10  1  0
 10 11  1  0
 11  7  1  0
M  END
>  <ref_pdb>  (1061) 
A3975a

>  <subsites>  (1061) 
1 - Active Site

>  <HIPPO Compound ID>  (1061) 
31930

>  <energy_score>  (1061) 
-6.924584

>  <fragmenstein_mode>  (1061) 
expansion

>  <scratch_subdir>  (1061) 
/opt/xchem-fragalysis-2/maxwin/BulkDock/SCRATCH/512220/C1329-P252

>  <smiles>  (1061) 
C[C@H](C(=O)NO)C1=CCCC1

>  <alias>  (1061) 
C1329-P252

>  <ref_mols>  (1061) 
A1080a,A3975a

>  <inspiration_score>  (1061) 
None

>  <tags>  (1061) 
BulkDock Fragalysis export,fragmenstein_placed,openbind_a71ev2a_c1_knitwork_impure,openbind_a71ev2a_c1_scaffolds

>  <fragmenstein_outcome>  (1061) 
acceptable

>  <fragmenstein_error>  (1061) 


>  <distance_score>  (1061) 
0.994908

>  <inchikey>  (1061) 
RBPJKPBEDYIOQL-UHFFFAOYSA-N

>  <name>  (1061) 
C1329-P252

>  <HIPPO Pose ID>  (1061) 
464018

>  <Energy>  (1061) 
77.553506

>  <exports>  (1061) 
['/opt/xchem-fragalysis-2/maxwin/BulkDock/OUTPUTS/openbind_a71ev2a_c1_knitwork_impure_165VXJF.sdf', '/opt/xchem-fragalysis-2/maxwin/BulkDock/OUTPUTS/openbind_a71ev2a_c1_knitwork_impure_1B07QS4.sdf', '/opt/xchem-fragalysis-2/maxwin/BulkDock/OUTPUTS/openbind_a71ev2a_c1_knitwork_impure_1B07X5R.sdf', '/opt/xchem-fragalysis-2/maxwin/openbind-hippo/a71ev2a/openbind_a71ev2a_c1_scaffold_products.sdf', '/opt/xchem-fragalysis-2/maxwin/openbind-hippo/a71ev2a/cycle_01/bulkdock/openbind_a71ev2a_c1_scaffold_products.sdf', '/opt/xchem-fragalysis-2/maxwin/openbind-hippo/a71ev2a/cycle_01/bulkdock/openbind_a71ev2a_c1_scaffolds.sdf']

>  <fragmenstein_runtime>  (1061) 
1.667344

$$$$
C3689-P235
     RDKit          3D

 11 12  0  0  0  0  0  0  0  0999 V2000
    8.0629   11.8649   24.9753 C   0  0  0  0  0  0  0  0  0  0  0  0
    7.8654   10.4961   24.8803 C   0  0  0  0  0  0  0  0  0  0  0  0
    6.8885    9.8917   25.6717 C   0  0  0  0  0  0  0  0  0  0  0  0
    6.1697   10.6639   26.5729 C   0  0  0  0  0  0  0  0  0  0  0  0
    5.1022   10.1668   27.4381 C   0  0  0  0  0  0  0  0  0  0  0  0
    4.2485   10.8709   28.2701 C   0  0  0  0  0  0  0  0  0  0  0  0
    3.3317    9.9356   28.7677 C   0  0  0  0  0  0  0  0  0  0  0  0
    3.5765    8.7081   28.3202 N   0  0  0  0  0  0  0  0  0  0  0  0
    4.6861    8.8633   27.5686 N   0  0  0  0  0  0  0  0  0  0  0  0
    6.3854   11.9917   26.7064 N   0  0  0  0  0  0  0  0  0  0  0  0
    7.2914   12.5658   25.8840 C   0  0  0  0  0  0  0  0  0  0  0  0
  1  2  2  0
  2  3  1  0
  3  4  2  0
  4  5  1  0
  5  6  2  0
  6  7  1  0
  7  8  2  0
  8  9  1  0
  4 10  1  0
 10 11  2  0
 11  1  1  0
  9  5  1  0
M  END
>  <ref_pdb>  (1062) 
A3897a

>  <subsites>  (1062) 
1 - Active Site

>  <HIPPO Compound ID>  (1062) 
5401

>  <energy_score>  (1062) 
-6.082349

>  <fragmenstein_mode>  (1062) 
expansion

>  <scratch_subdir>  (1062) 
/opt/xchem-fragalysis-2/maxwin/BulkDock/SCRATCH/512220/C3689-P235

>  <smiles>  (1062) 
c1ccc(-c2ccn[nH]2)nc1

>  <alias>  (1062) 
C3689-P235

>  <ref_mols>  (1062) 
A3897a,A0556a

>  <inspiration_score>  (1062) 
None

>  <tags>  (1062) 
BulkDock Fragalysis export,fragmenstein_placed,openbind_a71ev2a_c1_knitwork_impure,openbind_a71ev2a_c1_scaffolds

>  <fragmenstein_outcome>  (1062) 
acceptable

>  <fragmenstein_error>  (1062) 


>  <distance_score>  (1062) 
0.893332

>  <inchikey>  (1062) 
MWSDBUDWLOMHAE-UHFFFAOYSA-N

>  <name>  (1062) 
C3689-P235

>  <HIPPO Pose ID>  (1062) 
464867

>  <Energy>  (1062) 
16.47966

>  <exports>  (1062) 
['/opt/xchem-fragalysis-2/maxwin/BulkDock/OUTPUTS/openbind_a71ev2a_c1_knitwork_impure_165VXJF.sdf', '/opt/xchem-fragalysis-2/maxwin/BulkDock/OUTPUTS/openbind_a71ev2a_c1_knitwork_impure_1B07QS4.sdf', '/opt/xchem-fragalysis-2/maxwin/BulkDock/OUTPUTS/openbind_a71ev2a_c1_knitwork_impure_1B07X5R.sdf', '/opt/xchem-fragalysis-2/maxwin/openbind-hippo/a71ev2a/openbind_a71ev2a_c1_scaffold_products.sdf', '/opt/xchem-fragalysis-2/maxwin/openbind-hippo/a71ev2a/cycle_01/bulkdock/openbind_a71ev2a_c1_scaffold_products.sdf', '/opt/xchem-fragalysis-2/maxwin/openbind-hippo/a71ev2a/cycle_01/bulkdock/openbind_a71ev2a_c1_scaffolds.sdf']

>  <fragmenstein_runtime>  (1062) 
1.086284

$$$$
C3732-P235
     RDKit          3D

 11 12  0  0  0  0  0  0  0  0999 V2000
    8.0320   11.8788   24.9912 C   0  0  0  0  0  0  0  0  0  0  0  0
    7.8190   10.5131   24.8845 C   0  0  0  0  0  0  0  0  0  0  0  0
    6.8449    9.9127   25.6814 C   0  0  0  0  0  0  0  0  0  0  0  0
    6.1493   10.6825   26.6044 C   0  0  0  0  0  0  0  0  0  0  0  0
    5.1150   10.1286   27.4653 C   0  0  0  0  0  0  0  0  0  0  0  0
    4.3009    8.9747   27.3724 C   0  0  0  0  0  0  0  0  0  0  0  0
    3.3543    8.9132   28.3151 N   0  0  0  0  0  0  0  0  0  0  0  0
    3.5913   10.0042   29.0520 N   0  0  0  0  0  0  0  0  0  0  0  0
    4.6210   10.7632   28.5860 C   0  0  0  0  0  0  0  0  0  0  0  0
    6.3857   12.0075   26.7544 N   0  0  0  0  0  0  0  0  0  0  0  0
    7.2828   12.5789   25.9201 C   0  0  0  0  0  0  0  0  0  0  0  0
  1  2  2  0
  2  3  1  0
  3  4  2  0
  4  5  1  0
  5  6  1  0
  6  7  2  0
  7  8  1  0
  8  9  1  0
  4 10  1  0
 10 11  2  0
 11  1  1  0
  9  5  2  0
M  END
>  <ref_pdb>  (1063) 
A3897a

>  <subsites>  (1063) 
1 - Active Site

>  <HIPPO Compound ID>  (1063) 
3732

>  <energy_score>  (1063) 
-11.905572

>  <fragmenstein_mode>  (1063) 
expansion

>  <scratch_subdir>  (1063) 
/opt/xchem-fragalysis-2/maxwin/BulkDock/SCRATCH/512220/C3732-P235

>  <smiles>  (1063) 
c1ccc(-c2cn[nH]c2)nc1

>  <alias>  (1063) 
C3732-P235

>  <ref_mols>  (1063) 
A3897a,A0556a

>  <inspiration_score>  (1063) 
None

>  <tags>  (1063) 
BulkDock Fragalysis export,fragmenstein_placed,openbind_a71ev2a_c1_knitwork_impure,openbind_a71ev2a_c1_scaffolds

>  <fragmenstein_outcome>  (1063) 
acceptable

>  <fragmenstein_error>  (1063) 


>  <distance_score>  (1063) 
0.966026

>  <inchikey>  (1063) 
ZXOXPYYAVFDCDK-UHFFFAOYSA-N

>  <name>  (1063) 
C3732-P235

>  <HIPPO Pose ID>  (1063) 
464882

>  <Energy>  (1063) 
28.178835

>  <exports>  (1063) 
['/opt/xchem-fragalysis-2/maxwin/BulkDock/OUTPUTS/openbind_a71ev2a_c1_knitwork_impure_165VXJF.sdf', '/opt/xchem-fragalysis-2/maxwin/BulkDock/OUTPUTS/openbind_a71ev2a_c1_knitwork_impure_1B07QS4.sdf', '/opt/xchem-fragalysis-2/maxwin/BulkDock/OUTPUTS/openbind_a71ev2a_c1_knitwork_impure_1B07X5R.sdf', '/opt/xchem-fragalysis-2/maxwin/openbind-hippo/a71ev2a/openbind_a71ev2a_c1_scaffold_products.sdf', '/opt/xchem-fragalysis-2/maxwin/openbind-hippo/a71ev2a/cycle_01/bulkdock/openbind_a71ev2a_c1_scaffold_products.sdf', '/opt/xchem-fragalysis-2/maxwin/openbind-hippo/a71ev2a/cycle_01/bulkdock/openbind_a71ev2a_c1_scaffolds.sdf']

>  <fragmenstein_runtime>  (1063) 
1.722984

$$$$
C12360-P176
     RDKit          3D

 22 24  0  0  0  0  0  0  0  0999 V2000
   31.1031   23.3480   19.0459 O   0  0  0  0  0  0  0  0  0  0  0  0
   30.5535   22.3271   19.9139 S   0  0  0  0  0  0  0  0  0  0  0  0
   30.5135   20.9429   19.5107 O   0  0  0  0  0  0  0  0  0  0  0  0
   28.9104   22.8561   20.4155 C   0  0  0  0  0  0  0  0  0  0  0  0
   27.8088   22.1259   19.6481 C   0  0  0  0  0  0  0  0  0  0  0  0
   27.3911   20.7997   20.2929 C   0  0  0  0  0  0  0  0  0  0  0  0
   26.4307   20.9145   21.3771 N   0  0  0  0  0  0  0  0  0  0  0  0
   25.4704   19.9998   21.7118 C   0  0  0  0  0  0  0  0  0  0  0  0
   24.7739   20.5420   22.7651 C   0  0  0  0  0  0  0  0  0  0  0  0
   25.4068   21.7719   23.0137 C   0  0  0  0  0  0  0  0  0  0  0  0
   26.4325   21.9931   22.1889 N   0  0  0  0  0  0  0  0  0  0  0  0
   31.4608   22.4415   21.3208 N   0  0  0  0  0  0  0  0  0  0  0  0
   31.0447   22.1539   22.7176 C   0  0  1  0  0  0  0  0  0  0  0  0
   30.2767   20.8521   23.0422 C   0  0  0  0  0  0  0  0  0  0  0  0
   31.0258   20.8395   24.4086 C   0  0  1  0  0  0  0  0  0  0  0  0
   31.3238   19.4466   25.0889 C   0  0  0  0  0  0  0  0  0  0  0  0
   32.6149   18.9496   25.3263 C   0  0  0  0  0  0  0  0  0  0  0  0
   32.8154   17.7083   25.9288 C   0  0  0  0  0  0  0  0  0  0  0  0
   31.7056   16.9678   26.2869 C   0  0  0  0  0  0  0  0  0  0  0  0
   30.4398   17.3794   26.0816 N   0  0  0  0  0  0  0  0  0  0  0  0
   30.2891   18.6019   25.5125 C   0  0  0  0  0  0  0  0  0  0  0  0
   32.1470   21.6227   23.6679 C   0  0  0  0  0  0  0  0  0  0  0  0
  1  2  2  0
  2  3  2  0
  2  4  1  0
  4  5  1  0
  5  6  1  0
  6  7  1  0
  7  8  1  0
  8  9  2  0
  9 10  1  0
 10 11  2  0
  2 12  1  0
 13 12  1  6
 13 14  1  0
 14 15  1  0
 15 16  1  6
 16 17  2  0
 17 18  1  0
 18 19  2  0
 19 20  1  0
 20 21  2  0
 15 22  1  0
 11  7  1  0
 22 13  1  0
 21 16  1  0
M  END
>  <ref_pdb>  (1064) 
A3392a

>  <subsites>  (1064) 
1 - Active Site,5 - A3181/A/202/1

>  <HIPPO Compound ID>  (1064) 
94229

>  <energy_score>  (1064) 
-49.317438

>  <fragmenstein_mode>  (1064) 
expansion

>  <scratch_subdir>  (1064) 
/opt/xchem-fragalysis-2/maxwin/BulkDock/SCRATCH/512220/C12360-P176

>  <smiles>  (1064) 
O=S(=O)(CCCn1cccn1)N[C@H]1C[C@@H](c2cccnc2)C1

>  <alias>  (1064) 
C12360-P176

>  <ref_mols>  (1064) 
A3392a,A0719b

>  <inspiration_score>  (1064) 
None

>  <tags>  (1064) 
BulkDock Fragalysis export,fragmenstein_placed,openbind_a71ev2a_c1_knitwork_impure,openbind_a71ev2a_c1_scaffolds

>  <fragmenstein_outcome>  (1064) 
acceptable

>  <fragmenstein_error>  (1064) 


>  <distance_score>  (1064) 
0.849408

>  <inchikey>  (1064) 
UGODLXNSYTXUEC-UHFFFAOYSA-N

>  <name>  (1064) 
C12360-P176

>  <HIPPO Pose ID>  (1064) 
464966

>  <Energy>  (1064) 
-39.167668

>  <exports>  (1064) 
['/opt/xchem-fragalysis-2/maxwin/BulkDock/OUTPUTS/openbind_a71ev2a_c1_knitwork_impure_165VXJF.sdf', '/opt/xchem-fragalysis-2/maxwin/BulkDock/OUTPUTS/openbind_a71ev2a_c1_knitwork_impure_1B07QS4.sdf', '/opt/xchem-fragalysis-2/maxwin/BulkDock/OUTPUTS/openbind_a71ev2a_c1_knitwork_impure_1B07X5R.sdf', '/opt/xchem-fragalysis-2/maxwin/openbind-hippo/a71ev2a/openbind_a71ev2a_c1_scaffold_products.sdf', '/opt/xchem-fragalysis-2/maxwin/openbind-hippo/a71ev2a/cycle_01/bulkdock/openbind_a71ev2a_c1_scaffold_products.sdf', '/opt/xchem-fragalysis-2/maxwin/openbind-hippo/a71ev2a/cycle_01/bulkdock/openbind_a71ev2a_c1_scaffolds.sdf']

>  <fragmenstein_runtime>  (1064) 
6.246998

$$$$
C1390-P214
     RDKit          3D

 17 17  0  0  0  0  0  0  0  0999 V2000
   10.7139   16.0081   19.2125 C   0  0  0  0  0  0  0  0  0  0  0  0
   11.0783   15.4018   20.5525 C   0  0  0  0  0  0  0  0  0  0  0  0
    9.8392   15.1401   21.4180 C   0  0  0  0  0  0  0  0  0  0  0  0
   10.1787   14.3408   22.6858 C   0  0  2  0  0  0  0  0  0  0  0  0
    8.9655   13.6753   23.1924 N   0  0  0  0  0  0  0  0  0  0  0  0
    8.2775   13.7554   24.5826 C   0  0  0  0  0  0  0  0  0  0  0  0
    8.5233   14.4189   25.5104 O   0  0  0  0  0  0  0  0  0  0  0  0
    7.1423   12.7145   24.5708 C   0  0  0  0  0  0  0  0  0  0  0  0
    7.7358   11.3039   24.4465 C   0  0  0  0  0  0  0  0  0  0  0  0
    6.9634   10.2290   25.1972 C   0  0  0  0  0  0  0  0  0  0  0  0
    5.5444   10.4921   25.2548 N   0  0  0  0  0  0  0  0  0  0  0  0
    5.2001   11.7517   25.9027 C   0  0  0  0  0  0  0  0  0  0  0  0
    6.2874   12.8215   25.8367 C   0  0  0  0  0  0  0  0  0  0  0  0
   10.9395   15.1777   23.7336 C   0  0  0  0  0  0  0  0  0  0  0  0
   12.0236   15.7882   23.2112 F   0  0  0  0  0  0  0  0  0  0  0  0
   11.4031   14.3691   24.7205 F   0  0  0  0  0  0  0  0  0  0  0  0
   10.1822   16.1468   24.2878 F   0  0  0  0  0  0  0  0  0  0  0  0
  1  2  1  0
  2  3  1  0
  4  3  1  6
  4  5  1  0
  5  6  1  0
  6  7  2  0
  6  8  1  0
  8  9  1  0
  9 10  1  0
 10 11  1  0
 11 12  1  0
 12 13  1  0
  4 14  1  0
 14 15  1  0
 14 16  1  0
 14 17  1  0
 13  8  1  0
M  END
>  <ref_pdb>  (1065) 
A3550a

>  <subsites>  (1065) 
1 - Active Site

>  <HIPPO Compound ID>  (1065) 
1353

>  <energy_score>  (1065) 
-23.398141

>  <fragmenstein_mode>  (1065) 
expansion

>  <scratch_subdir>  (1065) 
/opt/xchem-fragalysis-2/maxwin/BulkDock/SCRATCH/512220/C1390-P214

>  <smiles>  (1065) 
CCC[C@H](NC(=O)C1CCNCC1)C(F)(F)F

>  <alias>  (1065) 
C1390-P214

>  <ref_mols>  (1065) 
A1778a,A3550a

>  <inspiration_score>  (1065) 
None

>  <tags>  (1065) 
BulkDock Fragalysis export,fragmenstein_placed,openbind_a71ev2a_c1_knitwork_impure,openbind_a71ev2a_c1_scaffolds

>  <fragmenstein_outcome>  (1065) 
acceptable

>  <fragmenstein_error>  (1065) 


>  <distance_score>  (1065) 
0.869234

>  <inchikey>  (1065) 
LOUAUNMHZDTLHZ-UHFFFAOYSA-N

>  <name>  (1065) 
C1390-P214

>  <HIPPO Pose ID>  (1065) 
465257

>  <Energy>  (1065) 
46.541851

>  <exports>  (1065) 
['/opt/xchem-fragalysis-2/maxwin/BulkDock/OUTPUTS/openbind_a71ev2a_c1_knitwork_impure_165VXJF.sdf', '/opt/xchem-fragalysis-2/maxwin/BulkDock/OUTPUTS/openbind_a71ev2a_c1_knitwork_impure_1B07QS4.sdf', '/opt/xchem-fragalysis-2/maxwin/BulkDock/OUTPUTS/openbind_a71ev2a_c1_knitwork_impure_1B07X5R.sdf', '/opt/xchem-fragalysis-2/maxwin/openbind-hippo/a71ev2a/openbind_a71ev2a_c1_scaffold_products.sdf', '/opt/xchem-fragalysis-2/maxwin/openbind-hippo/a71ev2a/cycle_01/bulkdock/openbind_a71ev2a_c1_scaffold_products.sdf', '/opt/xchem-fragalysis-2/maxwin/openbind-hippo/a71ev2a/cycle_01/bulkdock/openbind_a71ev2a_c1_scaffolds.sdf']

>  <fragmenstein_runtime>  (1065) 
9.132685

$$$$
C7479-P171
     RDKit          3D

 23 24  0  0  0  0  0  0  0  0999 V2000
    3.5363   12.1445   18.0925 C   0  0  0  0  0  0  0  0  0  0  0  0
    3.4661   12.3517   19.5995 C   0  0  0  0  0  0  0  0  0  0  0  0
    2.4957   11.3568   20.2262 C   0  0  0  0  0  0  0  0  0  0  0  0
    3.0677   13.7270   19.9184 C   0  0  0  0  0  0  0  0  0  0  0  0
    2.0477   14.2190   19.1578 O   0  0  0  0  0  0  0  0  0  0  0  0
    1.8838   15.4726   19.6111 C   0  0  0  0  0  0  0  0  0  0  0  0
    2.6860   15.8072   20.5999 N   0  0  0  0  0  0  0  0  0  0  0  0
    3.4410   14.6848   20.8415 C   0  0  0  0  0  0  0  0  0  0  0  0
    4.4024   14.6180   21.9928 C   0  0  0  0  0  0  0  0  0  0  0  0
    5.6092   15.3902   21.7321 N   0  0  0  0  0  0  0  0  0  0  0  0
    7.0800   14.7126   22.1832 S   0  0  0  0  0  0  0  0  0  0  0  0
    6.9582   13.3612   21.6509 O   0  0  0  0  0  0  0  0  0  0  0  0
    8.0310   15.5528   21.4869 O   0  0  0  0  0  0  0  0  0  0  0  0
    6.9619   14.8322   23.7082 N   0  0  0  0  0  0  0  0  0  0  0  0
    8.2791   14.5173   24.4436 S   0  0  2  0  0  0  0  0  0  0  0  0
    8.0128   15.0733   26.1165 C   0  0  0  0  0  0  0  0  0  0  0  0
    9.5853   15.0365   24.0972 O   0  0  0  0  0  0  0  0  0  0  0  0
    8.5199   12.7437   24.6773 C   0  0  0  0  0  0  0  0  0  0  0  0
    9.3470   12.1288   23.5455 C   0  0  0  0  0  0  0  0  0  0  0  0
    9.4557   10.6061   23.5550 C   0  0  0  0  0  0  0  0  0  0  0  0
    8.2707    9.8403   24.1094 C   0  0  0  0  0  0  0  0  0  0  0  0
    7.4499   10.5369   25.1786 C   0  0  0  0  0  0  0  0  0  0  0  0
    7.2141   12.0061   24.8945 C   0  0  0  0  0  0  0  0  0  0  0  0
  1  2  1  0
  2  3  1  0
  2  4  1  0
  4  5  1  0
  5  6  1  0
  6  7  2  0
  7  8  1  0
  8  9  1  0
  9 10  1  0
 10 11  1  0
 11 12  2  0
 11 13  2  0
 11 14  1  0
 14 15  2  0
 15 16  1  1
 15 17  2  0
 15 18  1  0
 18 19  1  0
 19 20  1  0
 20 21  1  0
 21 22  1  0
 22 23  1  0
  8  4  2  0
 23 18  1  0
M  END
>  <ref_pdb>  (1066) 
A3581a

>  <subsites>  (1066) 
1 - Active Site

>  <HIPPO Compound ID>  (1066) 
4546

>  <energy_score>  (1066) 
-237.387603

>  <fragmenstein_mode>  (1066) 
expansion

>  <scratch_subdir>  (1066) 
/opt/xchem-fragalysis-2/maxwin/BulkDock/SCRATCH/512220/C7479-P171

>  <smiles>  (1066) 
CC(C)c1ocnc1CNS(=O)(=O)N=[S@](C)(=O)C1CCCCC1

>  <alias>  (1066) 
C7479-P171

>  <ref_mols>  (1066) 
A3623a,A3581a

>  <inspiration_score>  (1066) 
None

>  <tags>  (1066) 
BulkDock Fragalysis export,fragmenstein_placed,openbind_a71ev2a_c1_knitwork_impure,openbind_a71ev2a_c1_scaffolds

>  <fragmenstein_outcome>  (1066) 
acceptable

>  <fragmenstein_error>  (1066) 


>  <distance_score>  (1066) 
0.840967

>  <inchikey>  (1066) 
JCJVPBFEEQLMPB-UHFFFAOYSA-N

>  <name>  (1066) 
C7479-P171

>  <HIPPO Pose ID>  (1066) 
465699

>  <Energy>  (1066) 
-240.94187

>  <exports>  (1066) 
['/opt/xchem-fragalysis-2/maxwin/BulkDock/OUTPUTS/openbind_a71ev2a_c1_knitwork_impure_165VXJF.sdf', '/opt/xchem-fragalysis-2/maxwin/BulkDock/OUTPUTS/openbind_a71ev2a_c1_knitwork_impure_1B07QS4.sdf', '/opt/xchem-fragalysis-2/maxwin/BulkDock/OUTPUTS/openbind_a71ev2a_c1_knitwork_impure_1B07X5R.sdf', '/opt/xchem-fragalysis-2/maxwin/openbind-hippo/a71ev2a/openbind_a71ev2a_c1_scaffold_products.sdf', '/opt/xchem-fragalysis-2/maxwin/openbind-hippo/a71ev2a/cycle_01/bulkdock/openbind_a71ev2a_c1_scaffold_products.sdf', '/opt/xchem-fragalysis-2/maxwin/openbind-hippo/a71ev2a/cycle_01/bulkdock/openbind_a71ev2a_c1_scaffolds.sdf']

>  <fragmenstein_runtime>  (1066) 
5.45806

$$$$
C11236-P171
     RDKit          3D

 22 23  0  0  0  0  0  0  0  0999 V2000
    1.5139   12.6712   17.5163 C   0  0  0  0  0  0  0  0  0  0  0  0
    2.0670   14.0290   17.9256 C   0  0  0  0  0  0  0  0  0  0  0  0
    2.8122   13.9877   19.1894 C   0  0  0  0  0  0  0  0  0  0  0  0
    3.0951   14.9198   20.0914 N   0  0  0  0  0  0  0  0  0  0  0  0
    3.8493   14.2297   21.0281 C   0  0  0  0  0  0  0  0  0  0  0  0
    4.4215   14.8245   22.2686 C   0  0  0  0  0  0  0  0  0  0  0  0
    5.6632   15.5232   21.9534 N   0  0  0  0  0  0  0  0  0  0  0  0
    7.1046   14.7293   22.2805 S   0  0  0  0  0  0  0  0  0  0  0  0
    6.8709   13.3943   21.7448 O   0  0  0  0  0  0  0  0  0  0  0  0
    8.0679   15.5179   21.5411 O   0  0  0  0  0  0  0  0  0  0  0  0
    7.0619   14.8650   23.8081 N   0  0  0  0  0  0  0  0  0  0  0  0
    8.3791   14.4952   24.5042 S   0  0  2  0  0  0  0  0  0  0  0  0
    8.1502   15.0238   26.1919 C   0  0  0  0  0  0  0  0  0  0  0  0
    9.6893   15.0001   24.1516 O   0  0  0  0  0  0  0  0  0  0  0  0
    8.5705   12.7132   24.6935 C   0  0  0  0  0  0  0  0  0  0  0  0
    9.3487   12.0990   23.5295 C   0  0  0  0  0  0  0  0  0  0  0  0
    9.4583   10.5773   23.5520 C   0  0  0  0  0  0  0  0  0  0  0  0
    8.2659    9.8244   24.1080 C   0  0  0  0  0  0  0  0  0  0  0  0
    7.4534   10.5253   25.1818 C   0  0  0  0  0  0  0  0  0  0  0  0
    7.2490   12.0048   24.9247 C   0  0  0  0  0  0  0  0  0  0  0  0
    3.9434   12.9285   20.6183 C   0  0  0  0  0  0  0  0  0  0  0  0
    3.3226   12.7616   19.4522 O   0  0  0  0  0  0  0  0  0  0  0  0
  1  2  1  0
  2  3  1  0
  3  4  2  0
  4  5  1  0
  5  6  1  0
  6  7  1  0
  7  8  1  0
  8  9  2  0
  8 10  2  0
  8 11  1  0
 11 12  2  0
 12 13  1  1
 12 14  2  0
 12 15  1  0
 15 16  1  0
 16 17  1  0
 17 18  1  0
 18 19  1  0
 19 20  1  0
  5 21  2  0
 21 22  1  0
 22  3  1  0
 20 15  1  0
M  END
>  <ref_pdb>  (1067) 
A3581a

>  <subsites>  (1067) 
1 - Active Site

>  <HIPPO Compound ID>  (1067) 
14073

>  <energy_score>  (1067) 
-76.732619

>  <fragmenstein_mode>  (1067) 
expansion

>  <scratch_subdir>  (1067) 
/opt/xchem-fragalysis-2/maxwin/BulkDock/SCRATCH/512220/C11236-P171

>  <smiles>  (1067) 
CCc1nc(CNS(=O)(=O)N=[S@](C)(=O)C2CCCCC2)co1

>  <alias>  (1067) 
C11236-P171

>  <ref_mols>  (1067) 
A3623a,A3581a

>  <inspiration_score>  (1067) 
None

>  <tags>  (1067) 
BulkDock Fragalysis export,fragmenstein_placed,openbind_a71ev2a_c1_knitwork_impure,openbind_a71ev2a_c1_scaffolds

>  <fragmenstein_outcome>  (1067) 
acceptable

>  <fragmenstein_error>  (1067) 


>  <distance_score>  (1067) 
0.863184

>  <inchikey>  (1067) 
XGNYIJRUPNCYBP-UHFFFAOYSA-N

>  <name>  (1067) 
C11236-P171

>  <HIPPO Pose ID>  (1067) 
465700

>  <Energy>  (1067) 
-242.070938

>  <exports>  (1067) 
['/opt/xchem-fragalysis-2/maxwin/BulkDock/OUTPUTS/openbind_a71ev2a_c1_knitwork_impure_165VXJF.sdf', '/opt/xchem-fragalysis-2/maxwin/BulkDock/OUTPUTS/openbind_a71ev2a_c1_knitwork_impure_1B07QS4.sdf', '/opt/xchem-fragalysis-2/maxwin/BulkDock/OUTPUTS/openbind_a71ev2a_c1_knitwork_impure_1B07X5R.sdf', '/opt/xchem-fragalysis-2/maxwin/openbind-hippo/a71ev2a/openbind_a71ev2a_c1_scaffold_products.sdf', '/opt/xchem-fragalysis-2/maxwin/openbind-hippo/a71ev2a/cycle_01/bulkdock/openbind_a71ev2a_c1_scaffold_products.sdf', '/opt/xchem-fragalysis-2/maxwin/openbind-hippo/a71ev2a/cycle_01/bulkdock/openbind_a71ev2a_c1_scaffolds.sdf']

>  <fragmenstein_runtime>  (1067) 
2.7974

$$$$
C86475-P364
     RDKit          3D

 14 14  0  0  0  0  0  0  0  0999 V2000
    9.3840   11.4253   24.3600 C   0  0  0  0  0  0  0  0  0  0  0  0
    8.9450   12.8819   24.5555 C   0  0  0  0  0  0  0  0  0  0  0  0
    9.6891   13.5437   25.7207 C   0  0  0  0  0  0  0  0  0  0  0  0
    7.4529   12.8823   24.9561 C   0  0  0  0  0  0  0  0  0  0  0  0
    9.0947   13.6259   23.1929 C   0  0  0  0  0  0  0  0  0  0  0  0
    8.1674   13.5173   22.3767 O   0  0  0  0  0  0  0  0  0  0  0  0
   10.3294   14.5098   22.9274 C   0  0  1  0  0  0  0  0  0  0  0  0
   11.5658   13.8471   23.3582 C   0  0  0  0  0  0  0  0  0  0  0  0
   12.4847   13.3567   23.8748 N   0  0  0  0  0  0  0  0  0  0  0  0
   10.4618   14.9904   21.5108 C   0  0  0  0  0  0  0  0  0  0  0  0
    9.6709   15.9441   20.8966 C   0  0  0  0  0  0  0  0  0  0  0  0
   10.1638   16.1577   19.2724 S   0  0  0  0  0  0  0  0  0  0  0  0
   11.4227   15.0462   19.5121 C   0  0  0  0  0  0  0  0  0  0  0  0
   11.5053   14.5313   20.7160 N   0  0  0  0  0  0  0  0  0  0  0  0
  1  2  1  0
  2  3  1  0
  2  4  1  0
  2  5  1  0
  5  6  2  0
  5  7  1  0
  7  8  1  6
  8  9  3  0
  7 10  1  0
 10 11  2  0
 11 12  1  0
 12 13  1  0
 13 14  2  0
 14 10  1  0
M  END
>  <ref_pdb>  (1068) 
A4445b

>  <subsites>  (1068) 
1 - Active Site

>  <HIPPO Compound ID>  (1068) 
1841

>  <energy_score>  (1068) 
-63.493059

>  <fragmenstein_mode>  (1068) 
expansion

>  <scratch_subdir>  (1068) 
/opt/xchem-fragalysis-2/maxwin/BulkDock/SCRATCH/512220/C86475-P364

>  <smiles>  (1068) 
CC(C)(C)C(=O)[C@@H](C#N)c1cscn1

>  <alias>  (1068) 
C86475-P364

>  <ref_mols>  (1068) 
A3306a,A4445b

>  <inspiration_score>  (1068) 
None

>  <tags>  (1068) 
BulkDock Fragalysis export,fragmenstein_placed,openbind_a71ev2a_c1_knitwork_impure,openbind_a71ev2a_c1_scaffolds

>  <fragmenstein_outcome>  (1068) 
acceptable

>  <fragmenstein_error>  (1068) 


>  <distance_score>  (1068) 
0.922039

>  <inchikey>  (1068) 
VEMKUJOKEUNKTH-UHFFFAOYSA-N

>  <name>  (1068) 
C86475-P364

>  <HIPPO Pose ID>  (1068) 
466605

>  <Energy>  (1068) 
45.150207

>  <exports>  (1068) 
['/opt/xchem-fragalysis-2/maxwin/BulkDock/OUTPUTS/openbind_a71ev2a_c1_knitwork_impure_165VXJF.sdf', '/opt/xchem-fragalysis-2/maxwin/BulkDock/OUTPUTS/openbind_a71ev2a_c1_knitwork_impure_1B07QS4.sdf', '/opt/xchem-fragalysis-2/maxwin/BulkDock/OUTPUTS/openbind_a71ev2a_c1_knitwork_impure_1B07X5R.sdf', '/opt/xchem-fragalysis-2/maxwin/openbind-hippo/a71ev2a/openbind_a71ev2a_c1_scaffold_products.sdf', '/opt/xchem-fragalysis-2/maxwin/openbind-hippo/a71ev2a/cycle_01/bulkdock/openbind_a71ev2a_c1_scaffold_products.sdf', '/opt/xchem-fragalysis-2/maxwin/openbind-hippo/a71ev2a/cycle_01/bulkdock/openbind_a71ev2a_c1_scaffolds.sdf']

>  <fragmenstein_runtime>  (1068) 
2.186548

$$$$
C86508-P364
     RDKit          3D

 13 13  0  0  0  0  0  0  0  0999 V2000
    9.5581    9.1892   22.7782 F   0  0  0  0  0  0  0  0  0  0  0  0
    9.6148    9.8276   23.9666 C   0  0  0  0  0  0  0  0  0  0  0  0
    8.5374    9.4297   24.6951 F   0  0  0  0  0  0  0  0  0  0  0  0
    9.5282   11.3217   23.7470 C   0  0  0  0  0  0  0  0  0  0  0  0
    9.8706   11.9951   24.9567 O   0  0  0  0  0  0  0  0  0  0  0  0
   10.1405   13.3782   24.7715 C   0  0  0  0  0  0  0  0  0  0  0  0
   11.5672   13.5631   24.2674 C   0  0  0  0  0  0  0  0  0  0  0  0
   11.9515   15.2976   23.9873 S   0  0  0  0  0  0  0  0  0  0  0  0
   11.0289   15.5113   22.5301 C   0  0  0  0  0  0  0  0  0  0  0  0
    9.7182   15.4647   22.5565 N   0  0  0  0  0  0  0  0  0  0  0  0
    9.2466   15.5875   21.2678 C   0  0  0  0  0  0  0  0  0  0  0  0
   10.2064   15.6947   20.2837 C   0  0  0  0  0  0  0  0  0  0  0  0
   11.7588   15.6554   20.9992 S   0  0  0  0  0  0  0  0  0  0  0  0
  1  2  1  0
  2  3  1  0
  2  4  1  0
  4  5  1  0
  5  6  1  0
  6  7  1  0
  7  8  1  0
  8  9  1  0
  9 10  2  0
 10 11  1  0
 11 12  2  0
 12 13  1  0
 13  9  1  0
M  END
>  <ref_pdb>  (1069) 
A4445b

>  <subsites>  (1069) 
1 - Active Site

>  <HIPPO Compound ID>  (1069) 
6001

>  <energy_score>  (1069) 
-52.76769

>  <fragmenstein_mode>  (1069) 
expansion

>  <scratch_subdir>  (1069) 
/opt/xchem-fragalysis-2/maxwin/BulkDock/SCRATCH/512220/C86508-P364

>  <smiles>  (1069) 
FC(F)COCCSc1nccs1

>  <alias>  (1069) 
C86508-P364

>  <ref_mols>  (1069) 
A3306a,A4445b

>  <inspiration_score>  (1069) 
None

>  <tags>  (1069) 
BulkDock Fragalysis export,fragmenstein_placed,openbind_a71ev2a_c1_knitwork_impure,openbind_a71ev2a_c1_scaffolds

>  <fragmenstein_outcome>  (1069) 
acceptable

>  <fragmenstein_error>  (1069) 


>  <distance_score>  (1069) 
0.953098

>  <inchikey>  (1069) 
WWTKBVZCSYFAEN-UHFFFAOYSA-N

>  <name>  (1069) 
C86508-P364

>  <HIPPO Pose ID>  (1069) 
466619

>  <Energy>  (1069) 
43.811489

>  <exports>  (1069) 
['/opt/xchem-fragalysis-2/maxwin/BulkDock/OUTPUTS/openbind_a71ev2a_c1_knitwork_impure_165VXJF.sdf', '/opt/xchem-fragalysis-2/maxwin/BulkDock/OUTPUTS/openbind_a71ev2a_c1_knitwork_impure_1B07QS4.sdf', '/opt/xchem-fragalysis-2/maxwin/BulkDock/OUTPUTS/openbind_a71ev2a_c1_knitwork_impure_1B07X5R.sdf', '/opt/xchem-fragalysis-2/maxwin/openbind-hippo/a71ev2a/openbind_a71ev2a_c1_scaffold_products.sdf', '/opt/xchem-fragalysis-2/maxwin/openbind-hippo/a71ev2a/cycle_01/bulkdock/openbind_a71ev2a_c1_scaffold_products.sdf', '/opt/xchem-fragalysis-2/maxwin/openbind-hippo/a71ev2a/cycle_01/bulkdock/openbind_a71ev2a_c1_scaffolds.sdf']

>  <fragmenstein_runtime>  (1069) 
1.873836

$$$$
C2382-P264
     RDKit          3D

 15 15  0  0  0  0  0  0  0  0999 V2000
    8.3317   10.2574   24.1874 C   0  0  0  0  0  0  0  0  0  0  0  0
    7.6055   11.1466   25.1892 C   0  0  0  0  0  0  0  0  0  0  0  0
    6.4191   10.3841   25.7652 C   0  0  0  0  0  0  0  0  0  0  0  0
    7.1609   12.5243   24.6926 C   0  0  0  0  0  0  0  0  0  0  0  0
    8.2586   13.5919   24.5991 C   0  0  0  0  0  0  0  0  0  0  0  0
    8.7339   14.0236   25.6595 O   0  0  0  0  0  0  0  0  0  0  0  0
    8.7878   14.0193   23.1720 C   0  0  0  0  0  0  0  0  0  0  0  0
    7.6106   14.1151   22.1858 C   0  0  0  0  0  0  0  0  0  0  0  0
    9.7382   12.9019   22.7523 C   0  0  0  0  0  0  0  0  0  0  0  0
    9.4547   15.3543   23.2499 N   0  0  0  0  0  0  0  0  0  0  0  0
   10.7720   15.3826   23.9008 C   0  0  0  0  0  0  0  0  0  0  0  0
   11.9651   15.1018   22.9825 C   0  0  0  0  0  0  0  0  0  0  0  0
   11.9276   15.8950   21.6841 C   0  0  0  0  0  0  0  0  0  0  0  0
   10.5655   15.8048   21.0158 C   0  0  0  0  0  0  0  0  0  0  0  0
    9.4828   16.1742   22.0218 C   0  0  0  0  0  0  0  0  0  0  0  0
  1  2  1  0
  2  3  1  0
  2  4  1  0
  4  5  1  0
  5  6  2  0
  5  7  1  0
  7  8  1  0
  7  9  1  0
  7 10  1  0
 10 11  1  0
 11 12  1  0
 12 13  1  0
 13 14  1  0
 14 15  1  0
 15 10  1  0
M  END
>  <ref_pdb>  (1070) 
A4012a

>  <subsites>  (1070) 
1 - Active Site

>  <HIPPO Compound ID>  (1070) 
29374

>  <energy_score>  (1070) 
-34.966504

>  <fragmenstein_mode>  (1070) 
expansion

>  <scratch_subdir>  (1070) 
/opt/xchem-fragalysis-2/maxwin/BulkDock/SCRATCH/512220/C2382-P264

>  <smiles>  (1070) 
CC(C)CC(=O)C(C)(C)N1CCCCC1

>  <alias>  (1070) 
C2382-P264

>  <ref_mols>  (1070) 
A4012a,A1779a

>  <inspiration_score>  (1070) 
None

>  <tags>  (1070) 
BulkDock Fragalysis export,fragmenstein_placed,openbind_a71ev2a_c1_knitwork_impure,openbind_a71ev2a_c1_scaffolds

>  <fragmenstein_outcome>  (1070) 
acceptable

>  <fragmenstein_error>  (1070) 


>  <distance_score>  (1070) 
0.963821

>  <inchikey>  (1070) 
LVVJGEHAZDHVAF-UHFFFAOYSA-N

>  <name>  (1070) 
C2382-P264

>  <HIPPO Pose ID>  (1070) 
466774

>  <Energy>  (1070) 
68.713547

>  <exports>  (1070) 
['/opt/xchem-fragalysis-2/maxwin/BulkDock/OUTPUTS/openbind_a71ev2a_c1_knitwork_impure_165VXJF.sdf', '/opt/xchem-fragalysis-2/maxwin/BulkDock/OUTPUTS/openbind_a71ev2a_c1_knitwork_impure_1B07QS4.sdf', '/opt/xchem-fragalysis-2/maxwin/BulkDock/OUTPUTS/openbind_a71ev2a_c1_knitwork_impure_1B07X5R.sdf', '/opt/xchem-fragalysis-2/maxwin/openbind-hippo/a71ev2a/openbind_a71ev2a_c1_scaffold_products.sdf', '/opt/xchem-fragalysis-2/maxwin/openbind-hippo/a71ev2a/cycle_01/bulkdock/openbind_a71ev2a_c1_scaffold_products.sdf', '/opt/xchem-fragalysis-2/maxwin/openbind-hippo/a71ev2a/cycle_01/bulkdock/openbind_a71ev2a_c1_scaffolds.sdf']

>  <fragmenstein_runtime>  (1070) 
4.427968

$$$$
C2414-P264
     RDKit          3D

 16 16  0  0  0  0  0  0  0  0999 V2000
    9.1369    9.7715   23.3102 C   0  0  0  0  0  0  0  0  0  0  0  0
    8.4368   10.4027   24.0535 C   0  0  0  0  0  0  0  0  0  0  0  0
    7.5723   11.0784   25.0287 C   0  0  0  0  0  0  0  0  0  0  0  0
    7.0563   12.4117   24.5434 C   0  0  0  0  0  0  0  0  0  0  0  0
    8.0353   13.5727   24.6005 C   0  0  0  0  0  0  0  0  0  0  0  0
    8.7400   13.7088   25.6107 O   0  0  0  0  0  0  0  0  0  0  0  0
    7.9708   14.6891   23.4739 C   0  0  1  0  0  0  0  0  0  0  0  0
    6.8966   14.3211   22.4218 C   0  0  0  0  0  0  0  0  0  0  0  0
    7.5169   15.9785   24.2426 C   0  0  0  0  0  0  0  0  0  0  0  0
    6.7486   17.0418   23.4640 C   0  0  0  0  0  0  0  0  0  0  0  0
    9.2996   14.7554   22.7730 N   0  0  0  0  0  0  0  0  0  0  0  0
   10.4511   15.0611   23.6450 C   0  0  0  0  0  0  0  0  0  0  0  0
   11.7809   14.9227   22.9049 C   0  0  0  0  0  0  0  0  0  0  0  0
   11.8338   15.8223   21.6841 C   0  0  0  0  0  0  0  0  0  0  0  0
   10.6365   15.5354   20.7996 C   0  0  0  0  0  0  0  0  0  0  0  0
    9.3338   15.6476   21.5923 C   0  0  0  0  0  0  0  0  0  0  0  0
  1  2  3  0
  2  3  1  0
  3  4  1  0
  4  5  1  0
  5  6  2  0
  5  7  1  0
  7  8  1  6
  7  9  1  0
  9 10  1  0
  7 11  1  0
 11 12  1  0
 12 13  1  0
 13 14  1  0
 14 15  1  0
 15 16  1  0
 16 11  1  0
M  END
>  <ref_pdb>  (1071) 
A4012a

>  <subsites>  (1071) 
1 - Active Site

>  <HIPPO Compound ID>  (1071) 
87747

>  <energy_score>  (1071) 
-34.971681

>  <fragmenstein_mode>  (1071) 
expansion

>  <scratch_subdir>  (1071) 
/opt/xchem-fragalysis-2/maxwin/BulkDock/SCRATCH/512220/C2414-P264

>  <smiles>  (1071) 
C#CCCC(=O)[C@@](C)(CC)N1CCCCC1

>  <alias>  (1071) 
C2414-P264

>  <ref_mols>  (1071) 
A4012a,A1779a

>  <inspiration_score>  (1071) 
None

>  <tags>  (1071) 
BulkDock Fragalysis export,fragmenstein_placed,openbind_a71ev2a_c1_knitwork_impure,openbind_a71ev2a_c1_scaffolds

>  <fragmenstein_outcome>  (1071) 
acceptable

>  <fragmenstein_error>  (1071) 


>  <distance_score>  (1071) 
0.842628

>  <inchikey>  (1071) 
VAVVBUAZZDYRRD-UHFFFAOYSA-N

>  <name>  (1071) 
C2414-P264

>  <HIPPO Pose ID>  (1071) 
466791

>  <Energy>  (1071) 
54.686946

>  <exports>  (1071) 
['/opt/xchem-fragalysis-2/maxwin/BulkDock/OUTPUTS/openbind_a71ev2a_c1_knitwork_impure_165VXJF.sdf', '/opt/xchem-fragalysis-2/maxwin/BulkDock/OUTPUTS/openbind_a71ev2a_c1_knitwork_impure_1B07QS4.sdf', '/opt/xchem-fragalysis-2/maxwin/BulkDock/OUTPUTS/openbind_a71ev2a_c1_knitwork_impure_1B07X5R.sdf', '/opt/xchem-fragalysis-2/maxwin/openbind-hippo/a71ev2a/openbind_a71ev2a_c1_scaffold_products.sdf', '/opt/xchem-fragalysis-2/maxwin/openbind-hippo/a71ev2a/cycle_01/bulkdock/openbind_a71ev2a_c1_scaffold_products.sdf', '/opt/xchem-fragalysis-2/maxwin/openbind-hippo/a71ev2a/cycle_01/bulkdock/openbind_a71ev2a_c1_scaffolds.sdf']

>  <fragmenstein_runtime>  (1071) 
3.120449

$$$$
C40869-P176
     RDKit          3D

 14 14  0  0  0  0  0  0  0  0999 V2000
   11.8915   14.0889   22.9821 C   0  0  0  0  0  0  0  0  0  0  0  0
   10.6854   13.2008   22.7951 C   0  0  0  0  0  0  0  0  0  0  0  0
    9.9716   12.7185   24.0703 C   0  0  1  0  0  0  0  0  0  0  0  0
    9.8125   13.8544   25.0606 C   0  0  0  0  0  0  0  0  0  0  0  0
    8.6490   12.0622   23.6127 C   0  0  0  0  0  0  0  0  0  0  0  0
    7.6815   11.4965   24.6546 C   0  0  1  0  0  0  0  0  0  0  0  0
    8.3314   10.4125   25.3237 O   0  0  0  0  0  0  0  0  0  0  0  0
    7.0041   12.4724   25.6472 C   0  0  0  0  0  0  0  0  0  0  0  0
    6.8173   12.1251   26.8201 O   0  0  0  0  0  0  0  0  0  0  0  0
    6.5873   13.7730   25.1525 C   0  0  0  0  0  0  0  0  0  0  0  0
    6.5323   14.1838   23.8980 N   0  0  0  0  0  0  0  0  0  0  0  0
    6.1012   15.4840   23.9903 C   0  0  0  0  0  0  0  0  0  0  0  0
    5.9210   15.8194   25.3073 C   0  0  0  0  0  0  0  0  0  0  0  0
    6.2491   14.7401   26.0684 O   0  0  0  0  0  0  0  0  0  0  0  0
  1  2  1  0
  2  3  1  0
  3  4  1  1
  3  5  1  0
  5  6  1  0
  6  7  1  1
  6  8  1  0
  8  9  2  0
  8 10  1  0
 10 11  2  0
 11 12  1  0
 12 13  2  0
 13 14  1  0
 14 10  1  0
M  END
>  <ref_pdb>  (1072) 
A3392a

>  <subsites>  (1072) 
1 - Active Site

>  <HIPPO Compound ID>  (1072) 
6254

>  <energy_score>  (1072) 
-39.031869

>  <fragmenstein_mode>  (1072) 
expansion

>  <scratch_subdir>  (1072) 
/opt/xchem-fragalysis-2/maxwin/BulkDock/SCRATCH/512220/C40869-P176

>  <smiles>  (1072) 
CC[C@@H](C)C[C@@H](O)C(=O)c1ncco1

>  <alias>  (1072) 
C40869-P176

>  <ref_mols>  (1072) 
A3392a,A0719a

>  <inspiration_score>  (1072) 
None

>  <tags>  (1072) 
BulkDock Fragalysis export,fragmenstein_placed,openbind_a71ev2a_c1_knitwork_impure,openbind_a71ev2a_c1_scaffolds

>  <fragmenstein_outcome>  (1072) 
acceptable

>  <fragmenstein_error>  (1072) 


>  <distance_score>  (1072) 
0.774175

>  <inchikey>  (1072) 
LCEGRNJGQNNSKF-UHFFFAOYSA-N

>  <name>  (1072) 
C40869-P176

>  <HIPPO Pose ID>  (1072) 
468146

>  <Energy>  (1072) 
88.466304

>  <exports>  (1072) 
['/opt/xchem-fragalysis-2/maxwin/BulkDock/OUTPUTS/openbind_a71ev2a_c1_knitwork_impure_165VXJF.sdf', '/opt/xchem-fragalysis-2/maxwin/BulkDock/OUTPUTS/openbind_a71ev2a_c1_knitwork_impure_1B07QS4.sdf', '/opt/xchem-fragalysis-2/maxwin/BulkDock/OUTPUTS/openbind_a71ev2a_c1_knitwork_impure_1B07X5R.sdf', '/opt/xchem-fragalysis-2/maxwin/openbind-hippo/a71ev2a/openbind_a71ev2a_c1_scaffold_products.sdf', '/opt/xchem-fragalysis-2/maxwin/openbind-hippo/a71ev2a/cycle_01/bulkdock/openbind_a71ev2a_c1_scaffold_products.sdf', '/opt/xchem-fragalysis-2/maxwin/openbind-hippo/a71ev2a/cycle_01/bulkdock/openbind_a71ev2a_c1_scaffolds.sdf']

>  <fragmenstein_runtime>  (1072) 
1.767859

$$$$
C1383-P278
     RDKit          3D

 13 13  0  0  0  0  0  0  0  0999 V2000
   11.2837   17.0581   27.3348 C   0  0  0  0  0  0  0  0  0  0  0  0
   10.8103   16.1829   26.3036 N   0  0  0  0  0  0  0  0  0  0  0  0
    9.5539   15.2677   26.2547 C   0  0  0  0  0  0  0  0  0  0  0  0
    8.7587   15.0312   27.0757 O   0  0  0  0  0  0  0  0  0  0  0  0
    9.5648   14.6261   24.8311 C   0  0  0  0  0  0  0  0  0  0  0  0
    8.2482   14.0857   24.4246 N   0  0  0  0  0  0  0  0  0  0  0  0
    8.1670   14.0054   22.9719 C   0  0  0  0  0  0  0  0  0  0  0  0
    7.8723   12.8528   25.1558 C   0  0  2  0  0  0  0  0  0  0  0  0
    7.7371   11.5638   24.3353 C   0  0  0  0  0  0  0  0  0  0  0  0
    7.2693   10.3937   25.1900 C   0  0  0  0  0  0  0  0  0  0  0  0
    6.0413   10.7142   26.0310 C   0  0  0  0  0  0  0  0  0  0  0  0
    6.1873   11.9454   26.7975 N   0  0  0  0  0  0  0  0  0  0  0  0
    6.5404   13.0785   25.9215 C   0  0  0  0  0  0  0  0  0  0  0  0
  1  2  1  0
  2  3  1  0
  3  4  2  0
  3  5  1  0
  5  6  1  0
  6  7  1  0
  8  6  1  6
  8  9  1  0
  9 10  1  0
 10 11  1  0
 11 12  1  0
 12 13  1  0
 13  8  1  0
M  END
>  <ref_pdb>  (1073) 
A4035a

>  <subsites>  (1073) 
1 - Active Site

>  <HIPPO Compound ID>  (1073) 
4572

>  <energy_score>  (1073) 
-35.893877

>  <fragmenstein_mode>  (1073) 
expansion

>  <scratch_subdir>  (1073) 
/opt/xchem-fragalysis-2/maxwin/BulkDock/SCRATCH/512220/C1383-P278

>  <smiles>  (1073) 
CNC(=O)CN(C)[C@@H]1CCCNC1

>  <alias>  (1073) 
C1383-P278

>  <ref_mols>  (1073) 
A1778a,A4035a

>  <inspiration_score>  (1073) 
None

>  <tags>  (1073) 
BulkDock Fragalysis export,fragmenstein_placed,openbind_a71ev2a_c1_knitwork_impure,openbind_a71ev2a_c1_scaffolds

>  <fragmenstein_outcome>  (1073) 
acceptable

>  <fragmenstein_error>  (1073) 


>  <distance_score>  (1073) 
0.978137

>  <inchikey>  (1073) 
ATACZHSZICCATA-UHFFFAOYSA-N

>  <name>  (1073) 
C1383-P278

>  <HIPPO Pose ID>  (1073) 
468768

>  <Energy>  (1073) 
71.509203

>  <exports>  (1073) 
['/opt/xchem-fragalysis-2/maxwin/BulkDock/OUTPUTS/openbind_a71ev2a_c1_knitwork_impure_165VXJF.sdf', '/opt/xchem-fragalysis-2/maxwin/BulkDock/OUTPUTS/openbind_a71ev2a_c1_knitwork_impure_1B07QS4.sdf', '/opt/xchem-fragalysis-2/maxwin/BulkDock/OUTPUTS/openbind_a71ev2a_c1_knitwork_impure_1B07X5R.sdf', '/opt/xchem-fragalysis-2/maxwin/openbind-hippo/a71ev2a/openbind_a71ev2a_c1_scaffold_products.sdf', '/opt/xchem-fragalysis-2/maxwin/openbind-hippo/a71ev2a/cycle_01/bulkdock/openbind_a71ev2a_c1_scaffold_products.sdf', '/opt/xchem-fragalysis-2/maxwin/openbind-hippo/a71ev2a/cycle_01/bulkdock/openbind_a71ev2a_c1_scaffolds.sdf']

>  <fragmenstein_runtime>  (1073) 
1.967981

$$$$
C8052-P310
     RDKit          3D

 19 19  0  0  0  0  0  0  0  0999 V2000
   11.7924   16.1388   22.0695 C   0  0  0  0  0  0  0  0  0  0  0  0
   10.9735   15.2896   21.1047 C   0  0  0  0  0  0  0  0  0  0  0  0
   10.3313   16.1608   20.0141 C   0  0  0  0  0  0  0  0  0  0  0  0
   11.9510   14.3577   20.3937 C   0  0  0  0  0  0  0  0  0  0  0  0
    9.8326   14.5251   21.8308 C   0  0  0  0  0  0  0  0  0  0  0  0
   10.1453   13.9235   23.2185 C   0  0  1  0  0  0  0  0  0  0  0  0
    9.8851   14.8829   24.2978 N   0  0  0  0  0  0  0  0  0  0  0  0
   10.6306   15.1248   25.6201 C   0  0  0  0  0  0  0  0  0  0  0  0
   11.6147   14.6547   26.0290 O   0  0  0  0  0  0  0  0  0  0  0  0
    9.8256   16.0625   26.4858 C   0  0  0  0  0  0  0  0  0  0  0  0
   10.3070   16.4693   27.7236 C   0  0  0  0  0  0  0  0  0  0  0  0
    9.5259   17.3450   28.4730 C   0  0  0  0  0  0  0  0  0  0  0  0
    8.3011   17.7752   27.9671 C   0  0  0  0  0  0  0  0  0  0  0  0
    7.8983   17.3162   26.7226 C   0  0  0  0  0  0  0  0  0  0  0  0
    8.6362   16.4750   25.9653 N   0  0  0  0  0  0  0  0  0  0  0  0
    9.3159   12.6466   23.4559 C   0  0  0  0  0  0  0  0  0  0  0  0
    9.3231   12.2778   24.7602 F   0  0  0  0  0  0  0  0  0  0  0  0
    8.0214   12.8196   23.0880 F   0  0  0  0  0  0  0  0  0  0  0  0
    9.7894   11.5978   22.7527 F   0  0  0  0  0  0  0  0  0  0  0  0
  1  2  1  0
  2  3  1  0
  2  4  1  0
  2  5  1  0
  6  5  1  6
  6  7  1  0
  7  8  1  0
  8  9  2  0
  8 10  1  0
 10 11  2  0
 11 12  1  0
 12 13  2  0
 13 14  1  0
 14 15  2  0
  6 16  1  0
 16 17  1  0
 16 18  1  0
 16 19  1  0
 15 10  1  0
M  END
>  <ref_pdb>  (1074) 
A4333a

>  <subsites>  (1074) 
1 - Active Site,6 - A0486/A/147/1

>  <HIPPO Compound ID>  (1074) 
16798

>  <energy_score>  (1074) 
-13.971544

>  <fragmenstein_mode>  (1074) 
expansion

>  <scratch_subdir>  (1074) 
/opt/xchem-fragalysis-2/maxwin/BulkDock/SCRATCH/512220/C8052-P310

>  <smiles>  (1074) 
CC(C)(C)C[C@@H](NC(=O)c1ccccn1)C(F)(F)F

>  <alias>  (1074) 
C8052-P310

>  <ref_mols>  (1074) 
A0486a,A4333a

>  <inspiration_score>  (1074) 
None

>  <tags>  (1074) 
BulkDock Fragalysis export,fragmenstein_placed,openbind_a71ev2a_c1_knitwork_impure,openbind_a71ev2a_c1_scaffolds

>  <fragmenstein_outcome>  (1074) 
acceptable

>  <fragmenstein_error>  (1074) 


>  <distance_score>  (1074) 
0.985767

>  <inchikey>  (1074) 
RRTBNFKCVDLBIR-UHFFFAOYSA-N

>  <name>  (1074) 
C8052-P310

>  <HIPPO Pose ID>  (1074) 
469093

>  <Energy>  (1074) 
118.08743

>  <exports>  (1074) 
['/opt/xchem-fragalysis-2/maxwin/BulkDock/OUTPUTS/openbind_a71ev2a_c1_knitwork_impure_165VXJF.sdf', '/opt/xchem-fragalysis-2/maxwin/BulkDock/OUTPUTS/openbind_a71ev2a_c1_knitwork_impure_1B07QS4.sdf', '/opt/xchem-fragalysis-2/maxwin/BulkDock/OUTPUTS/openbind_a71ev2a_c1_knitwork_impure_1B07X5R.sdf', '/opt/xchem-fragalysis-2/maxwin/openbind-hippo/a71ev2a/openbind_a71ev2a_c1_scaffold_products.sdf', '/opt/xchem-fragalysis-2/maxwin/openbind-hippo/a71ev2a/cycle_01/bulkdock/openbind_a71ev2a_c1_scaffold_products.sdf', '/opt/xchem-fragalysis-2/maxwin/openbind-hippo/a71ev2a/cycle_01/bulkdock/openbind_a71ev2a_c1_scaffolds.sdf']

>  <fragmenstein_runtime>  (1074) 
39.458142

$$$$
C10646-P363
     RDKit          3D

 14 14  0  0  0  0  0  0  0  0999 V2000
    4.3617   15.0886   22.9007 C   0  0  0  0  0  0  0  0  0  0  0  0
    5.5999   15.8570   22.4422 C   0  0  0  0  0  0  0  0  0  0  0  0
    6.9794   15.1944   22.7390 C   0  0  0  0  0  0  0  0  0  0  0  0
    6.9214   13.7481   22.2841 C   0  0  0  0  0  0  0  0  0  0  0  0
    8.0641   15.9148   21.9156 C   0  0  0  0  0  0  0  0  0  0  0  0
    7.3197   15.3037   24.2478 C   0  0  0  0  0  0  0  0  0  0  0  0
    8.5637   14.5369   24.7368 C   0  0  0  0  0  0  0  0  0  0  0  0
    8.3256   13.0498   24.9482 C   0  0  0  0  0  0  0  0  0  0  0  0
    8.9349   12.2014   24.2968 O   0  0  0  0  0  0  0  0  0  0  0  0
    7.3385   12.6808   25.9489 C   0  0  0  0  0  0  0  0  0  0  0  0
    6.7548   11.4484   26.1181 C   0  0  0  0  0  0  0  0  0  0  0  0
    5.8174   11.5545   27.1049 O   0  0  0  0  0  0  0  0  0  0  0  0
    5.9027   12.8540   27.4990 C   0  0  0  0  0  0  0  0  0  0  0  0
    6.8089   13.5643   26.8716 N   0  0  0  0  0  0  0  0  0  0  0  0
  1  2  1  0
  2  3  1  0
  3  4  1  0
  3  5  1  0
  3  6  1  0
  6  7  1  0
  7  8  1  0
  8  9  2  0
  8 10  1  0
 10 11  2  0
 11 12  1  0
 12 13  1  0
 13 14  2  0
 14 10  1  0
M  END
>  <ref_pdb>  (1075) 
A4445a

>  <subsites>  (1075) 
1 - Active Site

>  <HIPPO Compound ID>  (1075) 
12436

>  <energy_score>  (1075) 
-50.880829

>  <fragmenstein_mode>  (1075) 
expansion

>  <scratch_subdir>  (1075) 
/opt/xchem-fragalysis-2/maxwin/BulkDock/SCRATCH/512220/C10646-P363

>  <smiles>  (1075) 
CCC(C)(C)CCC(=O)c1cocn1

>  <alias>  (1075) 
C10646-P363

>  <ref_mols>  (1075) 
A3623a,A4445a

>  <inspiration_score>  (1075) 
None

>  <tags>  (1075) 
BulkDock Fragalysis export,fragmenstein_placed,openbind_a71ev2a_c1_knitwork_impure,openbind_a71ev2a_c1_scaffolds

>  <fragmenstein_outcome>  (1075) 
acceptable

>  <fragmenstein_error>  (1075) 


>  <distance_score>  (1075) 
0.871514

>  <inchikey>  (1075) 
DUYGGZWMEYALFM-UHFFFAOYSA-N

>  <name>  (1075) 
C10646-P363

>  <HIPPO Pose ID>  (1075) 
469346

>  <Energy>  (1075) 
48.090255

>  <exports>  (1075) 
['/opt/xchem-fragalysis-2/maxwin/BulkDock/OUTPUTS/openbind_a71ev2a_c1_knitwork_impure_165VXJF.sdf', '/opt/xchem-fragalysis-2/maxwin/BulkDock/OUTPUTS/openbind_a71ev2a_c1_knitwork_impure_1B07QS4.sdf', '/opt/xchem-fragalysis-2/maxwin/BulkDock/OUTPUTS/openbind_a71ev2a_c1_knitwork_impure_1B07X5R.sdf', '/opt/xchem-fragalysis-2/maxwin/openbind-hippo/a71ev2a/openbind_a71ev2a_c1_scaffold_products.sdf', '/opt/xchem-fragalysis-2/maxwin/openbind-hippo/a71ev2a/cycle_01/bulkdock/openbind_a71ev2a_c1_scaffold_products.sdf', '/opt/xchem-fragalysis-2/maxwin/openbind-hippo/a71ev2a/cycle_01/bulkdock/openbind_a71ev2a_c1_scaffolds.sdf']

>  <fragmenstein_runtime>  (1075) 
4.365921

$$$$
C22804-P550
     RDKit          3D

 22 23  0  0  0  0  0  0  0  0999 V2000
    6.8034   16.6701   22.5421 C   0  0  0  0  0  0  0  0  0  0  0  0
    7.2124   15.2200   22.6980 C   0  0  0  0  0  0  0  0  0  0  0  0
    8.4321   15.0643   23.6219 C   0  0  1  0  0  0  0  0  0  0  0  0
    8.2100   13.7363   24.3721 C   0  0  0  0  0  0  0  0  0  0  0  0
    7.5662   13.6869   25.3488 O   0  0  0  0  0  0  0  0  0  0  0  0
    8.8784   12.5966   23.5443 N   0  0  0  0  0  0  0  0  0  0  0  0
    8.8133   11.2455   23.6891 C   0  0  0  0  0  0  0  0  0  0  0  0
    9.3679   10.2775   22.9006 C   0  0  0  0  0  0  0  0  0  0  0  0
    8.9916    9.0695   23.4229 N   0  0  0  0  0  0  0  0  0  0  0  0
    8.1493    9.1966   24.4609 N   0  0  0  0  0  0  0  0  0  0  0  0
    8.1300   10.5105   24.6516 C   0  0  0  0  0  0  0  0  0  0  0  0
    7.5601   10.9846   25.7587 O   0  0  0  0  0  0  0  0  0  0  0  0
    6.1577   10.9003   25.6667 C   0  0  0  0  0  0  0  0  0  0  0  0
    5.4965   11.2273   26.9792 C   0  0  0  0  0  0  0  0  0  0  0  0
    5.6791   10.2156   27.8662 F   0  0  0  0  0  0  0  0  0  0  0  0
    6.0081   12.3449   27.5337 F   0  0  0  0  0  0  0  0  0  0  0  0
    9.7450   15.0955   22.9746 N   0  0  0  0  0  0  0  0  0  0  0  0
    9.9898   15.2592   21.5562 C   0  0  0  0  0  0  0  0  0  0  0  0
   11.4430   15.6909   21.4915 C   0  0  0  0  0  0  0  0  0  0  0  0
   12.0642   15.1188   22.7518 C   0  0  0  0  0  0  0  0  0  0  0  0
   10.9193   15.1412   23.7198 C   0  0  0  0  0  0  0  0  0  0  0  0
   11.0118   15.1217   24.9361 O   0  0  0  0  0  0  0  0  0  0  0  0
  1  2  1  0
  3  2  1  6
  3  4  1  0
  4  5  2  0
  4  6  1  0
  6  7  1  0
  7  8  2  0
  8  9  1  0
  9 10  1  0
 10 11  2  0
 11 12  1  0
 12 13  1  0
 13 14  1  0
 14 15  1  0
 14 16  1  0
  3 17  1  0
 17 18  1  0
 18 19  1  0
 19 20  1  0
 20 21  1  0
 21 22  2  0
 11  7  1  0
 21 17  1  0
M  END
>  <ref_pdb>  (1076) 
A5036a

>  <subsites>  (1076) 
1 - Active Site

>  <HIPPO Compound ID>  (1076) 
15324

>  <energy_score>  (1076) 
-16.918807

>  <fragmenstein_mode>  (1076) 
expansion

>  <scratch_subdir>  (1076) 
/opt/xchem-fragalysis-2/maxwin/BulkDock/SCRATCH/512031/C22804-P550

>  <smiles>  (1076) 
CC[C@@H](C(=O)Nc1c[nH]nc1OCC(F)F)N1CCCC1=O

>  <alias>  (1076) 
C22804-P550

>  <ref_mols>  (1076) 
A0556a,A5036a

>  <inspiration_score>  (1076) 
None

>  <tags>  (1076) 
BulkDock Fragalysis export,fragmenstein_placed,openbind_a71ev2a_c1_knitwork_impure,openbind_a71ev2a_c1_scaffolds

>  <fragmenstein_outcome>  (1076) 
acceptable

>  <fragmenstein_error>  (1076) 


>  <distance_score>  (1076) 
0.81214

>  <inchikey>  (1076) 
IXLQNKZHEBQVQI-UHFFFAOYSA-N

>  <name>  (1076) 
C22804-P550

>  <HIPPO Pose ID>  (1076) 
469583

>  <Energy>  (1076) 
46.546238

>  <exports>  (1076) 
['/opt/xchem-fragalysis-2/maxwin/BulkDock/OUTPUTS/openbind_a71ev2a_c1_knitwork_impure_165VXJF.sdf', '/opt/xchem-fragalysis-2/maxwin/BulkDock/OUTPUTS/openbind_a71ev2a_c1_knitwork_impure_1B07QS4.sdf', '/opt/xchem-fragalysis-2/maxwin/BulkDock/OUTPUTS/openbind_a71ev2a_c1_knitwork_impure_1B07X5R.sdf', '/opt/xchem-fragalysis-2/maxwin/openbind-hippo/a71ev2a/openbind_a71ev2a_c1_scaffold_products.sdf', '/opt/xchem-fragalysis-2/maxwin/openbind-hippo/a71ev2a/cycle_01/bulkdock/openbind_a71ev2a_c1_scaffold_products.sdf', '/opt/xchem-fragalysis-2/maxwin/openbind-hippo/a71ev2a/cycle_01/bulkdock/openbind_a71ev2a_c1_scaffolds.sdf']

>  <fragmenstein_runtime>  (1076) 
6.977833

$$$$
C9811-P205
     RDKit          3D

 14 14  0  0  0  0  0  0  0  0999 V2000
   11.3867   14.8261   18.4114 N   0  0  0  0  0  0  0  0  0  0  0  0
   11.6023   15.1539   19.5018 C   0  0  0  0  0  0  0  0  0  0  0  0
   11.9351   15.5278   20.8786 C   0  0  0  0  0  0  0  0  0  0  0  0
   10.7440   16.1095   21.6300 C   0  0  0  0  0  0  0  0  0  0  0  0
    9.6612   15.0932   21.9985 C   0  0  0  0  0  0  0  0  0  0  0  0
   10.1368   14.0649   23.0209 C   0  0  0  0  0  0  0  0  0  0  0  0
    9.0272   13.2882   23.5043 N   0  0  0  0  0  0  0  0  0  0  0  0
    8.2466   13.3703   24.8461 C   0  0  0  0  0  0  0  0  0  0  0  0
    8.3367   14.1299   25.7279 O   0  0  0  0  0  0  0  0  0  0  0  0
    7.1842   12.2653   24.7766 C   0  0  1  0  0  0  0  0  0  0  0  0
    7.7703   10.8681   24.6436 C   0  0  0  0  0  0  0  0  0  0  0  0
    6.8057    9.9780   25.3833 C   0  0  0  0  0  0  0  0  0  0  0  0
    6.3732   10.7947   26.5053 N   0  0  0  0  0  0  0  0  0  0  0  0
    6.2875   12.1791   26.0137 C   0  0  0  0  0  0  0  0  0  0  0  0
  1  2  3  0
  2  3  1  0
  3  4  1  0
  4  5  1  0
  5  6  1  0
  6  7  1  0
  7  8  1  0
  8  9  2  0
 10  8  1  1
 10 11  1  0
 11 12  1  0
 12 13  1  0
 13 14  1  0
 14 10  1  0
M  END
>  <ref_pdb>  (1077) 
A3694a

>  <subsites>  (1077) 
1 - Active Site

>  <HIPPO Compound ID>  (1077) 
4102

>  <energy_score>  (1077) 
-2.008569

>  <fragmenstein_mode>  (1077) 
expansion

>  <scratch_subdir>  (1077) 
/opt/xchem-fragalysis-2/maxwin/BulkDock/SCRATCH/512031/C9811-P205

>  <smiles>  (1077) 
N#CCCCCNC(=O)[C@H]1CCNC1

>  <alias>  (1077) 
C9811-P205

>  <ref_mols>  (1077) 
A1778a,A3694a

>  <inspiration_score>  (1077) 
None

>  <tags>  (1077) 
BulkDock Fragalysis export,fragmenstein_placed,openbind_a71ev2a_c1_knitwork_impure,openbind_a71ev2a_c1_scaffolds

>  <fragmenstein_outcome>  (1077) 
acceptable

>  <fragmenstein_error>  (1077) 


>  <distance_score>  (1077) 
0.920606

>  <inchikey>  (1077) 
IQWZYMQRGQLZOU-UHFFFAOYSA-N

>  <name>  (1077) 
C9811-P205

>  <HIPPO Pose ID>  (1077) 
470084

>  <Energy>  (1077) 
1.672177

>  <exports>  (1077) 
['/opt/xchem-fragalysis-2/maxwin/BulkDock/OUTPUTS/openbind_a71ev2a_c1_knitwork_impure_165VXJF.sdf', '/opt/xchem-fragalysis-2/maxwin/BulkDock/OUTPUTS/openbind_a71ev2a_c1_knitwork_impure_1B07QS4.sdf', '/opt/xchem-fragalysis-2/maxwin/BulkDock/OUTPUTS/openbind_a71ev2a_c1_knitwork_impure_1B07X5R.sdf', '/opt/xchem-fragalysis-2/maxwin/openbind-hippo/a71ev2a/openbind_a71ev2a_c1_scaffold_products.sdf', '/opt/xchem-fragalysis-2/maxwin/openbind-hippo/a71ev2a/cycle_01/bulkdock/openbind_a71ev2a_c1_scaffold_products.sdf', '/opt/xchem-fragalysis-2/maxwin/openbind-hippo/a71ev2a/cycle_01/bulkdock/openbind_a71ev2a_c1_scaffolds.sdf']

>  <fragmenstein_runtime>  (1077) 
2.771368

$$$$
C14769-P58
     RDKit          3D

 14 15  0  0  0  0  0  0  0  0999 V2000
    5.1343   13.5957    1.4484 O   0  0  0  0  0  0  0  0  0  0  0  0
    5.3522   13.7610    2.6457 C   0  0  0  0  0  0  0  0  0  0  0  0
    5.1345   15.0838    3.3288 C   0  0  0  0  0  0  0  0  0  0  0  0
    6.1284   15.3771    4.4222 C   0  0  0  0  0  0  0  0  0  0  0  0
    6.3142   16.5262    4.8276 O   0  0  0  0  0  0  0  0  0  0  0  0
    6.8249   14.2217    5.1149 C   0  0  0  0  0  0  0  0  0  0  0  0
    7.1504   13.0850    4.1436 C   0  0  0  0  0  0  0  0  0  0  0  0
    8.1768   13.4223    3.0682 C   0  0  0  0  0  0  0  0  0  0  0  0
    8.5290   12.4504    2.1218 C   0  0  0  0  0  0  0  0  0  0  0  0
    9.4173   12.7567    1.0956 C   0  0  0  0  0  0  0  0  0  0  0  0
    9.9645   14.0251    1.0591 C   0  0  0  0  0  0  0  0  0  0  0  0
    9.6927   14.9806    1.9712 N   0  0  0  0  0  0  0  0  0  0  0  0
    8.7950   14.6669    2.9316 C   0  0  0  0  0  0  0  0  0  0  0  0
    5.8287   12.6292    3.5164 C   0  0  0  0  0  0  0  0  0  0  0  0
  1  2  2  0
  2  3  1  0
  3  4  1  0
  4  5  2  0
  4  6  1  0
  6  7  1  0
  7  8  1  0
  8  9  2  0
  9 10  1  0
 10 11  2  0
 11 12  1  0
 12 13  2  0
  7 14  1  0
 14  2  1  0
 13  8  1  0
M  END
>  <ref_pdb>  (1078) 
A0354a

>  <subsites>  (1078) 
3 - A0541/A/147/1

>  <HIPPO Compound ID>  (1078) 
3511

>  <energy_score>  (1078) 
-8.884499

>  <fragmenstein_mode>  (1078) 
expansion

>  <scratch_subdir>  (1078) 
/opt/xchem-fragalysis-2/maxwin/BulkDock/SCRATCH/512031/C14769-P58

>  <smiles>  (1078) 
O=C1CC(=O)CC(c2cccnc2)C1

>  <alias>  (1078) 
C14769-P58

>  <ref_mols>  (1078) 
A0354a,A0428a

>  <inspiration_score>  (1078) 
None

>  <tags>  (1078) 
BulkDock Fragalysis export,fragmenstein_placed,openbind_a71ev2a_c1_knitwork_impure,openbind_a71ev2a_c1_scaffolds

>  <fragmenstein_outcome>  (1078) 
acceptable

>  <fragmenstein_error>  (1078) 


>  <distance_score>  (1078) 
0.9965

>  <inchikey>  (1078) 
GFAIQXCMYIWPBA-UHFFFAOYSA-N

>  <name>  (1078) 
C14769-P58

>  <HIPPO Pose ID>  (1078) 
470247

>  <Energy>  (1078) 
17.351787

>  <exports>  (1078) 
['/opt/xchem-fragalysis-2/maxwin/BulkDock/OUTPUTS/openbind_a71ev2a_c1_knitwork_impure_165VXJF.sdf', '/opt/xchem-fragalysis-2/maxwin/BulkDock/OUTPUTS/openbind_a71ev2a_c1_knitwork_impure_1B07QS4.sdf', '/opt/xchem-fragalysis-2/maxwin/BulkDock/OUTPUTS/openbind_a71ev2a_c1_knitwork_impure_1B07X5R.sdf', '/opt/xchem-fragalysis-2/maxwin/openbind-hippo/a71ev2a/openbind_a71ev2a_c1_scaffold_products.sdf', '/opt/xchem-fragalysis-2/maxwin/openbind-hippo/a71ev2a/cycle_01/bulkdock/openbind_a71ev2a_c1_scaffold_products.sdf', '/opt/xchem-fragalysis-2/maxwin/openbind-hippo/a71ev2a/cycle_01/bulkdock/openbind_a71ev2a_c1_scaffolds.sdf']

>  <fragmenstein_runtime>  (1078) 
8.921457

$$$$
C4666-P229
     RDKit          3D

 10 10  0  0  0  0  0  0  0  0999 V2000
    8.4181   13.7530   25.3234 C   0  0  0  0  0  0  0  0  0  0  0  0
    8.7396   13.2707   23.9135 C   0  0  2  0  0  0  0  0  0  0  0  0
    9.1147   11.7958   23.9616 C   0  0  0  0  0  0  0  0  0  0  0  0
    8.8028   11.0397   24.8831 O   0  0  0  0  0  0  0  0  0  0  0  0
    9.7655   14.1533   23.3431 N   0  0  0  0  0  0  0  0  0  0  0  0
   11.1560   13.9264   23.7361 C   0  0  0  0  0  0  0  0  0  0  0  0
   12.0412   15.1128   23.3013 C   0  0  0  0  0  0  0  0  0  0  0  0
   11.9884   15.3936   21.8651 N   0  0  0  0  0  0  0  0  0  0  0  0
   10.5877   15.5702   21.4449 C   0  0  0  0  0  0  0  0  0  0  0  0
    9.6548   14.4197   21.9011 C   0  0  0  0  0  0  0  0  0  0  0  0
  2  1  1  1
  2  3  1  0
  3  4  2  0
  2  5  1  0
  5  6  1  0
  6  7  1  0
  7  8  1  0
  8  9  1  0
  9 10  1  0
 10  5  1  0
M  END
>  <ref_pdb>  (1079) 
A3869a

>  <subsites>  (1079) 
1 - Active Site

>  <HIPPO Compound ID>  (1079) 
15369

>  <energy_score>  (1079) 
-24.683541

>  <fragmenstein_mode>  (1079) 
expansion

>  <scratch_subdir>  (1079) 
/opt/xchem-fragalysis-2/maxwin/BulkDock/SCRATCH/512031/C4666-P229

>  <smiles>  (1079) 
C[C@H](C=O)N1CCNCC1

>  <alias>  (1079) 
C4666-P229

>  <ref_mols>  (1079) 
A1775a,A3869a

>  <inspiration_score>  (1079) 
None

>  <tags>  (1079) 
BulkDock Fragalysis export,fragmenstein_placed,openbind_a71ev2a_c1_knitwork_impure,openbind_a71ev2a_c1_scaffolds

>  <fragmenstein_outcome>  (1079) 
acceptable

>  <fragmenstein_error>  (1079) 


>  <distance_score>  (1079) 
0.829208

>  <inchikey>  (1079) 
PFGLLURXEHPOCK-UHFFFAOYSA-N

>  <name>  (1079) 
C4666-P229

>  <HIPPO Pose ID>  (1079) 
470312

>  <Energy>  (1079) 
101.980257

>  <exports>  (1079) 
['/opt/xchem-fragalysis-2/maxwin/BulkDock/OUTPUTS/openbind_a71ev2a_c1_knitwork_impure_165VXJF.sdf', '/opt/xchem-fragalysis-2/maxwin/BulkDock/OUTPUTS/openbind_a71ev2a_c1_knitwork_impure_1B07QS4.sdf', '/opt/xchem-fragalysis-2/maxwin/BulkDock/OUTPUTS/openbind_a71ev2a_c1_knitwork_impure_1B07X5R.sdf', '/opt/xchem-fragalysis-2/maxwin/openbind-hippo/a71ev2a/openbind_a71ev2a_c1_scaffold_products.sdf', '/opt/xchem-fragalysis-2/maxwin/openbind-hippo/a71ev2a/cycle_01/bulkdock/openbind_a71ev2a_c1_scaffold_products.sdf', '/opt/xchem-fragalysis-2/maxwin/openbind-hippo/a71ev2a/cycle_01/bulkdock/openbind_a71ev2a_c1_scaffolds.sdf']

>  <fragmenstein_runtime>  (1079) 
0.866992

$$$$
C7479-P564
     RDKit          3D

 23 24  0  0  0  0  0  0  0  0999 V2000
    2.3732   11.1262   18.7582 C   0  0  0  0  0  0  0  0  0  0  0  0
    2.4991   11.9017   20.0432 C   0  0  0  0  0  0  0  0  0  0  0  0
    1.3414   11.8798   21.0334 C   0  0  0  0  0  0  0  0  0  0  0  0
    2.7282   13.2897   19.7014 C   0  0  0  0  0  0  0  0  0  0  0  0
    1.7761   13.9164   18.9709 O   0  0  0  0  0  0  0  0  0  0  0  0
    2.2028   15.1907   18.9738 C   0  0  0  0  0  0  0  0  0  0  0  0
    3.3316   15.3984   19.6213 N   0  0  0  0  0  0  0  0  0  0  0  0
    3.6949   14.1640   20.1008 C   0  0  0  0  0  0  0  0  0  0  0  0
    4.7913   13.7966   21.0865 C   0  0  0  0  0  0  0  0  0  0  0  0
    5.9375   14.7063   21.2231 N   0  0  0  0  0  0  0  0  0  0  0  0
    7.2403   14.2629   22.1405 S   0  0  0  0  0  0  0  0  0  0  0  0
    7.1570   12.8189   22.0231 O   0  0  0  0  0  0  0  0  0  0  0  0
    8.3312   14.8835   21.4173 O   0  0  0  0  0  0  0  0  0  0  0  0
    6.9190   14.7537   23.5572 N   0  0  0  0  0  0  0  0  0  0  0  0
    8.1328   14.4774   24.4808 S   0  0  2  0  0  0  0  0  0  0  0  0
    7.6640   15.1053   26.0801 C   0  0  0  0  0  0  0  0  0  0  0  0
    9.4718   14.9947   24.2774 O   0  0  0  0  0  0  0  0  0  0  0  0
    8.3586   12.7169   24.8202 C   0  0  0  0  0  0  0  0  0  0  0  0
    9.3542   12.0426   23.8603 C   0  0  0  0  0  0  0  0  0  0  0  0
    9.3397   10.5151   23.8322 C   0  0  0  0  0  0  0  0  0  0  0  0
    8.0208    9.8526   24.1747 C   0  0  0  0  0  0  0  0  0  0  0  0
    7.2489   10.5118   25.2974 C   0  0  0  0  0  0  0  0  0  0  0  0
    7.0384   11.9894   25.0419 C   0  0  0  0  0  0  0  0  0  0  0  0
  1  2  1  0
  2  3  1  0
  2  4  1  0
  4  5  1  0
  5  6  1  0
  6  7  2  0
  7  8  1  0
  8  9  1  0
  9 10  1  0
 10 11  1  0
 11 12  2  0
 11 13  2  0
 11 14  1  0
 14 15  2  0
 15 16  1  1
 15 17  2  0
 15 18  1  0
 18 19  1  0
 19 20  1  0
 20 21  1  0
 21 22  1  0
 22 23  1  0
  8  4  2  0
 23 18  1  0
M  END
>  <ref_pdb>  (1080) 
A5091a

>  <subsites>  (1080) 
1 - Active Site

>  <HIPPO Compound ID>  (1080) 
12140

>  <energy_score>  (1080) 
-217.287941

>  <fragmenstein_mode>  (1080) 
expansion

>  <scratch_subdir>  (1080) 
/opt/xchem-fragalysis-2/maxwin/BulkDock/SCRATCH/512031/C7479-P564

>  <smiles>  (1080) 
CC(C)c1ocnc1CNS(=O)(=O)N=[S@](C)(=O)C1CCCCC1

>  <alias>  (1080) 
C7479-P564

>  <ref_mols>  (1080) 
A3623a,A5091a

>  <inspiration_score>  (1080) 
None

>  <tags>  (1080) 
BulkDock Fragalysis export,fragmenstein_placed,openbind_a71ev2a_c1_knitwork_impure,openbind_a71ev2a_c1_scaffolds

>  <fragmenstein_outcome>  (1080) 
acceptable

>  <fragmenstein_error>  (1080) 


>  <distance_score>  (1080) 
0.98809

>  <inchikey>  (1080) 
IFWHXWDSJNOWHX-UHFFFAOYSA-N

>  <name>  (1080) 
C7479-P564

>  <HIPPO Pose ID>  (1080) 
470379

>  <Energy>  (1080) 
-220.842208

>  <exports>  (1080) 
['/opt/xchem-fragalysis-2/maxwin/BulkDock/OUTPUTS/openbind_a71ev2a_c1_knitwork_impure_165VXJF.sdf', '/opt/xchem-fragalysis-2/maxwin/BulkDock/OUTPUTS/openbind_a71ev2a_c1_knitwork_impure_1B07QS4.sdf', '/opt/xchem-fragalysis-2/maxwin/BulkDock/OUTPUTS/openbind_a71ev2a_c1_knitwork_impure_1B07X5R.sdf', '/opt/xchem-fragalysis-2/maxwin/openbind-hippo/a71ev2a/openbind_a71ev2a_c1_scaffold_products.sdf', '/opt/xchem-fragalysis-2/maxwin/openbind-hippo/a71ev2a/cycle_01/bulkdock/openbind_a71ev2a_c1_scaffold_products.sdf', '/opt/xchem-fragalysis-2/maxwin/openbind-hippo/a71ev2a/cycle_01/bulkdock/openbind_a71ev2a_c1_scaffolds.sdf']

>  <fragmenstein_runtime>  (1080) 
3.989396

$$$$
C15027-P348
     RDKit          3D

 13 13  0  0  0  0  0  0  0  0999 V2000
   11.8903   14.7441   22.9107 C   0  0  0  0  0  0  0  0  0  0  0  0
   10.7012   15.0922   23.4156 C   0  0  0  0  0  0  0  0  0  0  0  0
    9.3995   14.8847   22.6979 C   0  0  0  0  0  0  0  0  0  0  0  0
    8.5713   13.7073   23.2024 C   0  0  0  0  0  0  0  0  0  0  0  0
    7.7690   13.1462   22.4452 O   0  0  0  0  0  0  0  0  0  0  0  0
    8.6499   13.3583   24.6943 C   0  0  1  0  0  0  0  0  0  0  0  0
    8.0107   14.4077   25.4193 O   0  0  0  0  0  0  0  0  0  0  0  0
    8.0597   12.0071   25.0410 C   0  0  0  0  0  0  0  0  0  0  0  0
    6.9876   11.8529   25.9281 C   0  0  0  0  0  0  0  0  0  0  0  0
    6.5197   10.5780   26.1977 C   0  0  0  0  0  0  0  0  0  0  0  0
    7.0552    9.4595   25.6708 N   0  0  0  0  0  0  0  0  0  0  0  0
    8.0923    9.6248   24.8207 C   0  0  0  0  0  0  0  0  0  0  0  0
    8.6170   10.8548   24.4773 C   0  0  0  0  0  0  0  0  0  0  0  0
  1  2  2  0
  2  3  1  0
  3  4  1  0
  4  5  2  0
  4  6  1  0
  6  7  1  1
  6  8  1  0
  8  9  2  0
  9 10  1  0
 10 11  2  0
 11 12  1  0
 12 13  2  0
 13  8  1  0
M  END
>  <ref_pdb>  (1081) 
A4388a

>  <subsites>  (1081) 
1 - Active Site

>  <HIPPO Compound ID>  (1081) 
5284

>  <energy_score>  (1081) 
-8.226789

>  <fragmenstein_mode>  (1081) 
expansion

>  <scratch_subdir>  (1081) 
/opt/xchem-fragalysis-2/maxwin/BulkDock/SCRATCH/512031/C15027-P348

>  <smiles>  (1081) 
C=CCC(=O)[C@@H](O)c1ccncc1

>  <alias>  (1081) 
C15027-P348

>  <ref_mols>  (1081) 
A4388a,A0719a

>  <inspiration_score>  (1081) 
None

>  <tags>  (1081) 
BulkDock Fragalysis export,fragmenstein_placed,openbind_a71ev2a_c1_knitwork_impure,openbind_a71ev2a_c1_scaffolds

>  <fragmenstein_outcome>  (1081) 
acceptable

>  <fragmenstein_error>  (1081) 


>  <distance_score>  (1081) 
0.896411

>  <inchikey>  (1081) 
ANGWTGNRJJVGJX-UHFFFAOYSA-N

>  <name>  (1081) 
C15027-P348

>  <HIPPO Pose ID>  (1081) 
471091

>  <Energy>  (1081) 
76.121484

>  <exports>  (1081) 
['/opt/xchem-fragalysis-2/maxwin/BulkDock/OUTPUTS/openbind_a71ev2a_c1_knitwork_impure_165VXJF.sdf', '/opt/xchem-fragalysis-2/maxwin/BulkDock/OUTPUTS/openbind_a71ev2a_c1_knitwork_impure_1B07QS4.sdf', '/opt/xchem-fragalysis-2/maxwin/BulkDock/OUTPUTS/openbind_a71ev2a_c1_knitwork_impure_1B07X5R.sdf', '/opt/xchem-fragalysis-2/maxwin/openbind-hippo/a71ev2a/openbind_a71ev2a_c1_scaffold_products.sdf', '/opt/xchem-fragalysis-2/maxwin/openbind-hippo/a71ev2a/cycle_01/bulkdock/openbind_a71ev2a_c1_scaffold_products.sdf', '/opt/xchem-fragalysis-2/maxwin/openbind-hippo/a71ev2a/cycle_01/bulkdock/openbind_a71ev2a_c1_scaffolds.sdf']

>  <fragmenstein_runtime>  (1081) 
1.416672

$$$$
C15044-P348
     RDKit          3D

 15 15  0  0  0  0  0  0  0  0999 V2000
   10.4977   15.2771   19.6990 N   0  0  0  0  0  0  0  0  0  0  0  0
   11.2609   15.5069   20.5381 C   0  0  0  0  0  0  0  0  0  0  0  0
   12.1477   15.8201   21.6548 C   0  0  0  0  0  0  0  0  0  0  0  0
   12.0679   14.7844   22.7765 C   0  0  0  0  0  0  0  0  0  0  0  0
   10.7541   14.8112   23.5499 C   0  0  0  0  0  0  0  0  0  0  0  0
    9.7105   14.1400   22.7944 N   0  0  0  0  0  0  0  0  0  0  0  0
    8.3213   13.6464   23.5764 S   0  0  0  0  0  0  0  0  0  0  0  0
    8.2029   14.4155   24.7964 O   0  0  0  0  0  0  0  0  0  0  0  0
    7.2890   13.5803   22.5645 O   0  0  0  0  0  0  0  0  0  0  0  0
    8.5881   11.9699   24.0793 C   0  0  0  0  0  0  0  0  0  0  0  0
    7.7456   11.4267   25.0379 C   0  0  0  0  0  0  0  0  0  0  0  0
    7.8297   10.0624   25.2401 C   0  0  0  0  0  0  0  0  0  0  0  0
    8.7333    9.3265   24.4777 C   0  0  0  0  0  0  0  0  0  0  0  0
    9.5382    9.9688   23.5565 C   0  0  0  0  0  0  0  0  0  0  0  0
    9.5065   11.2922   23.3507 N   0  0  0  0  0  0  0  0  0  0  0  0
  1  2  3  0
  2  3  1  0
  3  4  1  0
  4  5  1  0
  5  6  1  0
  6  7  1  0
  7  8  2  0
  7  9  2  0
  7 10  1  0
 10 11  2  0
 11 12  1  0
 12 13  2  0
 13 14  1  0
 14 15  2  0
 15 10  1  0
M  END
>  <ref_pdb>  (1082) 
A4388a

>  <subsites>  (1082) 
1 - Active Site

>  <HIPPO Compound ID>  (1082) 
12512

>  <energy_score>  (1082) 
-36.333431

>  <fragmenstein_mode>  (1082) 
expansion

>  <scratch_subdir>  (1082) 
/opt/xchem-fragalysis-2/maxwin/BulkDock/SCRATCH/512031/C15044-P348

>  <smiles>  (1082) 
N#CCCCNS(=O)(=O)c1ccccn1

>  <alias>  (1082) 
C15044-P348

>  <ref_mols>  (1082) 
A4388a,A0719a

>  <inspiration_score>  (1082) 
None

>  <tags>  (1082) 
BulkDock Fragalysis export,fragmenstein_placed,openbind_a71ev2a_c1_knitwork_impure,openbind_a71ev2a_c1_scaffolds

>  <fragmenstein_outcome>  (1082) 
acceptable

>  <fragmenstein_error>  (1082) 


>  <distance_score>  (1082) 
0.893014

>  <inchikey>  (1082) 
CNWCZZAACSBMEQ-UHFFFAOYSA-N

>  <name>  (1082) 
C15044-P348

>  <HIPPO Pose ID>  (1082) 
471105

>  <Energy>  (1082) 
19.671591

>  <exports>  (1082) 
['/opt/xchem-fragalysis-2/maxwin/BulkDock/OUTPUTS/openbind_a71ev2a_c1_knitwork_impure_165VXJF.sdf', '/opt/xchem-fragalysis-2/maxwin/BulkDock/OUTPUTS/openbind_a71ev2a_c1_knitwork_impure_1B07QS4.sdf', '/opt/xchem-fragalysis-2/maxwin/BulkDock/OUTPUTS/openbind_a71ev2a_c1_knitwork_impure_1B07X5R.sdf', '/opt/xchem-fragalysis-2/maxwin/openbind-hippo/a71ev2a/openbind_a71ev2a_c1_scaffold_products.sdf', '/opt/xchem-fragalysis-2/maxwin/openbind-hippo/a71ev2a/cycle_01/bulkdock/openbind_a71ev2a_c1_scaffold_products.sdf', '/opt/xchem-fragalysis-2/maxwin/openbind-hippo/a71ev2a/cycle_01/bulkdock/openbind_a71ev2a_c1_scaffolds.sdf']

>  <fragmenstein_runtime>  (1082) 
6.206751

$$$$
C15065-P348
     RDKit          3D

 13 13  0  0  0  0  0  0  0  0999 V2000
   11.8963   15.1693   22.8914 C   0  0  0  0  0  0  0  0  0  0  0  0
   10.9582   14.3040   23.5176 O   0  0  0  0  0  0  0  0  0  0  0  0
    9.6753   14.4001   22.8983 C   0  0  0  0  0  0  0  0  0  0  0  0
    8.8289   13.1881   23.2907 C   0  0  2  0  0  0  0  0  0  0  0  0
    7.6428   13.1265   22.4850 O   0  0  0  0  0  0  0  0  0  0  0  0
    8.3840   13.2292   24.7469 C   0  0  0  0  0  0  0  0  0  0  0  0
    8.4535   14.2407   25.4435 O   0  0  0  0  0  0  0  0  0  0  0  0
    7.6974   12.0419   25.3118 C   0  0  0  0  0  0  0  0  0  0  0  0
    6.7360   12.2507   26.3055 C   0  0  0  0  0  0  0  0  0  0  0  0
    6.0265   11.1732   26.8198 C   0  0  0  0  0  0  0  0  0  0  0  0
    6.3145    9.9140   26.3314 C   0  0  0  0  0  0  0  0  0  0  0  0
    7.2592    9.6669   25.3979 N   0  0  0  0  0  0  0  0  0  0  0  0
    7.9275   10.7383   24.8968 C   0  0  0  0  0  0  0  0  0  0  0  0
  1  2  1  0
  2  3  1  0
  3  4  1  0
  4  5  1  6
  4  6  1  0
  6  7  2  0
  6  8  1  0
  8  9  2  0
  9 10  1  0
 10 11  2  0
 11 12  1  0
 12 13  2  0
 13  8  1  0
M  END
>  <ref_pdb>  (1083) 
A4388a

>  <subsites>  (1083) 
1 - Active Site

>  <HIPPO Compound ID>  (1083) 
9551

>  <energy_score>  (1083) 
-22.715113

>  <fragmenstein_mode>  (1083) 
expansion

>  <scratch_subdir>  (1083) 
/opt/xchem-fragalysis-2/maxwin/BulkDock/SCRATCH/512031/C15065-P348

>  <smiles>  (1083) 
COC[C@H](O)C(=O)c1cccnc1

>  <alias>  (1083) 
C15065-P348

>  <ref_mols>  (1083) 
A4388a,A0719a

>  <inspiration_score>  (1083) 
None

>  <tags>  (1083) 
BulkDock Fragalysis export,fragmenstein_placed,openbind_a71ev2a_c1_knitwork_impure,openbind_a71ev2a_c1_scaffolds

>  <fragmenstein_outcome>  (1083) 
acceptable

>  <fragmenstein_error>  (1083) 


>  <distance_score>  (1083) 
0.835395

>  <inchikey>  (1083) 
TUJBPBYAHMFXCP-UHFFFAOYSA-N

>  <name>  (1083) 
C15065-P348

>  <HIPPO Pose ID>  (1083) 
471123

>  <Energy>  (1083) 
79.548748

>  <exports>  (1083) 
['/opt/xchem-fragalysis-2/maxwin/BulkDock/OUTPUTS/openbind_a71ev2a_c1_knitwork_impure_165VXJF.sdf', '/opt/xchem-fragalysis-2/maxwin/BulkDock/OUTPUTS/openbind_a71ev2a_c1_knitwork_impure_1B07QS4.sdf', '/opt/xchem-fragalysis-2/maxwin/BulkDock/OUTPUTS/openbind_a71ev2a_c1_knitwork_impure_1B07X5R.sdf', '/opt/xchem-fragalysis-2/maxwin/openbind-hippo/a71ev2a/openbind_a71ev2a_c1_scaffold_products.sdf', '/opt/xchem-fragalysis-2/maxwin/openbind-hippo/a71ev2a/cycle_01/bulkdock/openbind_a71ev2a_c1_scaffold_products.sdf', '/opt/xchem-fragalysis-2/maxwin/openbind-hippo/a71ev2a/cycle_01/bulkdock/openbind_a71ev2a_c1_scaffolds.sdf']

>  <fragmenstein_runtime>  (1083) 
0.932761

$$$$
C15067-P348
     RDKit          3D

 15 15  0  0  0  0  0  0  0  0999 V2000
   11.4470   15.2555   20.3535 C   0  0  0  0  0  0  0  0  0  0  0  0
   11.8099   15.8702   21.6996 C   0  0  0  0  0  0  0  0  0  0  0  0
   11.8335   14.8723   22.8587 C   0  0  0  0  0  0  0  0  0  0  0  0
   10.5630   14.6790   23.4997 O   0  0  0  0  0  0  0  0  0  0  0  0
    9.6181   14.0755   22.6265 C   0  0  0  0  0  0  0  0  0  0  0  0
    8.5509   13.2470   23.3191 C   0  0  0  0  0  0  0  0  0  0  0  0
    7.5805   12.8480   22.6697 O   0  0  0  0  0  0  0  0  0  0  0  0
    8.7828   12.9196   24.7870 C   0  0  1  0  0  0  0  0  0  0  0  0
    8.7297   14.1222   25.5574 O   0  0  0  0  0  0  0  0  0  0  0  0
    7.8312   11.8891   25.3447 C   0  0  0  0  0  0  0  0  0  0  0  0
    6.7704   12.2273   26.1895 C   0  0  0  0  0  0  0  0  0  0  0  0
    5.9392   11.2350   26.6961 C   0  0  0  0  0  0  0  0  0  0  0  0
    6.1906    9.9249   26.3371 C   0  0  0  0  0  0  0  0  0  0  0  0
    7.1976    9.5515   25.5221 N   0  0  0  0  0  0  0  0  0  0  0  0
    7.9824   10.5392   25.0319 C   0  0  0  0  0  0  0  0  0  0  0  0
  1  2  1  0
  2  3  1  0
  3  4  1  0
  4  5  1  0
  5  6  1  0
  6  7  2  0
  6  8  1  0
  8  9  1  1
  8 10  1  0
 10 11  2  0
 11 12  1  0
 12 13  2  0
 13 14  1  0
 14 15  2  0
 15 10  1  0
M  END
>  <ref_pdb>  (1084) 
A4388a

>  <subsites>  (1084) 
1 - Active Site

>  <HIPPO Compound ID>  (1084) 
7845

>  <energy_score>  (1084) 
-21.530959

>  <fragmenstein_mode>  (1084) 
expansion

>  <scratch_subdir>  (1084) 
/opt/xchem-fragalysis-2/maxwin/BulkDock/SCRATCH/512031/C15067-P348

>  <smiles>  (1084) 
CCCOCC(=O)[C@@H](O)c1cccnc1

>  <alias>  (1084) 
C15067-P348

>  <ref_mols>  (1084) 
A4388a,A0719a

>  <inspiration_score>  (1084) 
None

>  <tags>  (1084) 
BulkDock Fragalysis export,fragmenstein_placed,openbind_a71ev2a_c1_knitwork_impure,openbind_a71ev2a_c1_scaffolds

>  <fragmenstein_outcome>  (1084) 
acceptable

>  <fragmenstein_error>  (1084) 


>  <distance_score>  (1084) 
0.948236

>  <inchikey>  (1084) 
JDNYYFHSMGZRFL-UHFFFAOYSA-N

>  <name>  (1084) 
C15067-P348

>  <HIPPO Pose ID>  (1084) 
471125

>  <Energy>  (1084) 
74.588478

>  <exports>  (1084) 
['/opt/xchem-fragalysis-2/maxwin/BulkDock/OUTPUTS/openbind_a71ev2a_c1_knitwork_impure_165VXJF.sdf', '/opt/xchem-fragalysis-2/maxwin/BulkDock/OUTPUTS/openbind_a71ev2a_c1_knitwork_impure_1B07QS4.sdf', '/opt/xchem-fragalysis-2/maxwin/BulkDock/OUTPUTS/openbind_a71ev2a_c1_knitwork_impure_1B07X5R.sdf', '/opt/xchem-fragalysis-2/maxwin/openbind-hippo/a71ev2a/openbind_a71ev2a_c1_scaffold_products.sdf', '/opt/xchem-fragalysis-2/maxwin/openbind-hippo/a71ev2a/cycle_01/bulkdock/openbind_a71ev2a_c1_scaffold_products.sdf', '/opt/xchem-fragalysis-2/maxwin/openbind-hippo/a71ev2a/cycle_01/bulkdock/openbind_a71ev2a_c1_scaffolds.sdf']

>  <fragmenstein_runtime>  (1084) 
1.25796

$$$$
C8141-P348
     RDKit          3D

 14 14  0  0  0  0  0  0  0  0999 V2000
   11.9438   15.5703   22.1096 C   0  0  0  0  0  0  0  0  0  0  0  0
   10.8357   15.0322   22.9478 C   0  0  0  0  0  0  0  0  0  0  0  0
    9.8329   14.3005   22.4401 C   0  0  0  0  0  0  0  0  0  0  0  0
    8.7407   13.6397   23.2156 C   0  0  0  0  0  0  0  0  0  0  0  0
    7.7502   13.2567   22.5887 O   0  0  0  0  0  0  0  0  0  0  0  0
    8.9033   13.4264   24.7465 C   0  0  2  0  0  0  0  0  0  0  0  0
    8.4258   14.7069   25.4409 C   0  0  0  0  0  0  0  0  0  0  0  0
   10.2815   13.2367   25.1209 O   0  0  0  0  0  0  0  0  0  0  0  0
    8.1765   12.1748   25.2904 C   0  0  0  0  0  0  0  0  0  0  0  0
    6.7174   12.3531   25.7043 C   0  0  0  0  0  0  0  0  0  0  0  0
    6.1409   11.0774   26.3219 C   0  0  0  0  0  0  0  0  0  0  0  0
    6.3979    9.8645   25.5543 N   0  0  0  0  0  0  0  0  0  0  0  0
    7.7962    9.7189   25.1813 C   0  0  0  0  0  0  0  0  0  0  0  0
    8.3857   10.9156   24.4633 C   0  0  0  0  0  0  0  0  0  0  0  0
  1  2  1  0
  2  3  2  3
  3  4  1  0
  4  5  2  0
  4  6  1  0
  6  7  1  1
  6  8  1  0
  6  9  1  0
  9 10  1  0
 10 11  1  0
 11 12  1  0
 12 13  1  0
 13 14  1  0
 14  9  1  0
M  END
>  <ref_pdb>  (1085) 
A4388a

>  <subsites>  (1085) 
1 - Active Site

>  <HIPPO Compound ID>  (1085) 
1287

>  <energy_score>  (1085) 
-23.848056

>  <fragmenstein_mode>  (1085) 
expansion

>  <scratch_subdir>  (1085) 
/opt/xchem-fragalysis-2/maxwin/BulkDock/SCRATCH/512031/C8141-P348

>  <smiles>  (1085) 
CC=CC(=O)[C@](C)(O)C1CCNCC1

>  <alias>  (1085) 
C8141-P348

>  <ref_mols>  (1085) 
A4388a,A0719a

>  <inspiration_score>  (1085) 
None

>  <tags>  (1085) 
BulkDock Fragalysis export,fragmenstein_placed,openbind_a71ev2a_c1_knitwork_impure,openbind_a71ev2a_c1_scaffolds

>  <fragmenstein_outcome>  (1085) 
acceptable

>  <fragmenstein_error>  (1085) 


>  <distance_score>  (1085) 
0.954202

>  <inchikey>  (1085) 
QKDZKLODHGSJHY-UHFFFAOYSA-N

>  <name>  (1085) 
C8141-P348

>  <HIPPO Pose ID>  (1085) 
471137

>  <Energy>  (1085) 
58.367597

>  <exports>  (1085) 
['/opt/xchem-fragalysis-2/maxwin/BulkDock/OUTPUTS/openbind_a71ev2a_c1_knitwork_impure_165VXJF.sdf', '/opt/xchem-fragalysis-2/maxwin/BulkDock/OUTPUTS/openbind_a71ev2a_c1_knitwork_impure_1B07QS4.sdf', '/opt/xchem-fragalysis-2/maxwin/BulkDock/OUTPUTS/openbind_a71ev2a_c1_knitwork_impure_1B07X5R.sdf', '/opt/xchem-fragalysis-2/maxwin/openbind-hippo/a71ev2a/openbind_a71ev2a_c1_scaffold_products.sdf', '/opt/xchem-fragalysis-2/maxwin/openbind-hippo/a71ev2a/cycle_01/bulkdock/openbind_a71ev2a_c1_scaffold_products.sdf', '/opt/xchem-fragalysis-2/maxwin/openbind-hippo/a71ev2a/cycle_01/bulkdock/openbind_a71ev2a_c1_scaffolds.sdf']

>  <fragmenstein_runtime>  (1085) 
1.75604

$$$$
C8176-P348
     RDKit          3D

 15 15  0  0  0  0  0  0  0  0999 V2000
    7.9114   14.8633   25.3505 C   0  0  0  0  0  0  0  0  0  0  0  0
    8.4518   13.5465   24.7771 C   0  0  2  0  0  0  0  0  0  0  0  0
    9.7274   13.3200   25.3743 O   0  0  0  0  0  0  0  0  0  0  0  0
    8.5447   13.6931   23.2296 C   0  0  0  0  0  0  0  0  0  0  0  0
    7.8015   13.0497   22.4763 O   0  0  0  0  0  0  0  0  0  0  0  0
    9.5214   14.7291   22.7004 C   0  0  0  0  0  0  0  0  0  0  0  0
   10.4327   15.1246   23.6391 F   0  0  0  0  0  0  0  0  0  0  0  0
   10.2294   14.2986   21.6312 F   0  0  0  0  0  0  0  0  0  0  0  0
    8.4489   16.2481   22.1473 Br  0  0  0  0  0  0  0  0  0  0  0  0
    7.4934   12.3515   25.1184 C   0  0  2  0  0  0  0  0  0  0  0  0
    6.8079   12.4258   26.4896 C   0  0  0  0  0  0  0  0  0  0  0  0
    5.9278   11.2195   26.7948 C   0  0  0  0  0  0  0  0  0  0  0  0
    6.3645    9.9296   26.1211 C   0  0  0  0  0  0  0  0  0  0  0  0
    7.7706    9.9136   25.7780 N   0  0  0  0  0  0  0  0  0  0  0  0
    8.1527   10.9817   24.8584 C   0  0  0  0  0  0  0  0  0  0  0  0
  2  1  1  1
  2  3  1  0
  2  4  1  0
  4  5  2  0
  4  6  1  0
  6  7  1  0
  6  8  1  0
  6  9  1  0
  2 10  1  0
 10 11  1  1
 11 12  1  0
 12 13  1  0
 13 14  1  0
 14 15  1  0
 15 10  1  0
M  END
>  <ref_pdb>  (1086) 
A4388a

>  <subsites>  (1086) 
1 - Active Site

>  <HIPPO Compound ID>  (1086) 
9362

>  <energy_score>  (1086) 
-22.590345

>  <fragmenstein_mode>  (1086) 
expansion

>  <scratch_subdir>  (1086) 
/opt/xchem-fragalysis-2/maxwin/BulkDock/SCRATCH/512031/C8176-P348

>  <smiles>  (1086) 
C[C@](O)(C(=O)C(F)(F)Br)[C@@H]1CCCNC1

>  <alias>  (1086) 
C8176-P348

>  <ref_mols>  (1086) 
A4388a,A0719a

>  <inspiration_score>  (1086) 
None

>  <tags>  (1086) 
BulkDock Fragalysis export,fragmenstein_placed,openbind_a71ev2a_c1_knitwork_impure,openbind_a71ev2a_c1_scaffolds

>  <fragmenstein_outcome>  (1086) 
acceptable

>  <fragmenstein_error>  (1086) 


>  <distance_score>  (1086) 
0.928415

>  <inchikey>  (1086) 
JJHKJZKHZJQZCI-UHFFFAOYSA-N

>  <name>  (1086) 
C8176-P348

>  <HIPPO Pose ID>  (1086) 
471165

>  <Energy>  (1086) 
80.793105

>  <exports>  (1086) 
['/opt/xchem-fragalysis-2/maxwin/BulkDock/OUTPUTS/openbind_a71ev2a_c1_knitwork_impure_165VXJF.sdf', '/opt/xchem-fragalysis-2/maxwin/BulkDock/OUTPUTS/openbind_a71ev2a_c1_knitwork_impure_1B07QS4.sdf', '/opt/xchem-fragalysis-2/maxwin/BulkDock/OUTPUTS/openbind_a71ev2a_c1_knitwork_impure_1B07X5R.sdf', '/opt/xchem-fragalysis-2/maxwin/openbind-hippo/a71ev2a/openbind_a71ev2a_c1_scaffold_products.sdf', '/opt/xchem-fragalysis-2/maxwin/openbind-hippo/a71ev2a/cycle_01/bulkdock/openbind_a71ev2a_c1_scaffold_products.sdf', '/opt/xchem-fragalysis-2/maxwin/openbind-hippo/a71ev2a/cycle_01/bulkdock/openbind_a71ev2a_c1_scaffolds.sdf']

>  <fragmenstein_runtime>  (1086) 
1.064398

$$$$
C38598-P551
     RDKit          3D

 13 13  0  0  0  0  0  0  0  0999 V2000
    6.3161   10.7170   26.1231 C   0  0  0  0  0  0  0  0  0  0  0  0
    7.2743   11.3290   25.2756 O   0  0  0  0  0  0  0  0  0  0  0  0
    7.4645   12.7236   25.5291 C   0  0  2  0  0  0  0  0  0  0  0  0
    6.2171   13.5715   25.3668 C   0  0  0  0  0  0  0  0  0  0  0  0
    8.6205   13.1535   24.6226 C   0  0  0  0  0  0  0  0  0  0  0  0
    8.5776   14.2075   23.8638 N   0  0  0  0  0  0  0  0  0  0  0  0
    9.7417   14.5044   23.1565 N   0  0  0  0  0  0  0  0  0  0  0  0
    9.5139   15.2884   21.9397 C   0  0  0  0  0  0  0  0  0  0  0  0
   10.7180   15.3260   21.0129 C   0  0  0  0  0  0  0  0  0  0  0  0
   11.9370   15.7886   21.7880 C   0  0  0  0  0  0  0  0  0  0  0  0
   12.1810   14.8610   22.9616 C   0  0  0  0  0  0  0  0  0  0  0  0
   10.9654   14.6268   23.8406 C   0  0  0  0  0  0  0  0  0  0  0  0
   11.1130   14.4429   25.0530 O   0  0  0  0  0  0  0  0  0  0  0  0
  1  2  1  0
  2  3  1  0
  3  4  1  6
  3  5  1  0
  5  6  2  3
  6  7  1  0
  7  8  1  0
  8  9  1  0
  9 10  1  0
 10 11  1  0
 11 12  1  0
 12 13  2  0
 12  7  1  0
M  END
>  <ref_pdb>  (1087) 
A5036b

>  <subsites>  (1087) 
1 - Active Site

>  <HIPPO Compound ID>  (1087) 
3504

>  <energy_score>  (1087) 
-28.13718

>  <fragmenstein_mode>  (1087) 
expansion

>  <scratch_subdir>  (1087) 
/opt/xchem-fragalysis-2/maxwin/BulkDock/SCRATCH/512031/C38598-P551

>  <smiles>  (1087) 
CO[C@H](C)C=NN1CCCCC1=O

>  <alias>  (1087) 
C38598-P551

>  <ref_mols>  (1087) 
A1775a,A5036b

>  <inspiration_score>  (1087) 
None

>  <tags>  (1087) 
BulkDock Fragalysis export,fragmenstein_placed,openbind_a71ev2a_c1_knitwork_impure,openbind_a71ev2a_c1_scaffolds

>  <fragmenstein_outcome>  (1087) 
acceptable

>  <fragmenstein_error>  (1087) 


>  <distance_score>  (1087) 
0.84002

>  <inchikey>  (1087) 
RWEBVRKWAUWERV-UHFFFAOYSA-N

>  <name>  (1087) 
C38598-P551

>  <HIPPO Pose ID>  (1087) 
471281

>  <Energy>  (1087) 
64.899156

>  <exports>  (1087) 
['/opt/xchem-fragalysis-2/maxwin/BulkDock/OUTPUTS/openbind_a71ev2a_c1_knitwork_impure_165VXJF.sdf', '/opt/xchem-fragalysis-2/maxwin/BulkDock/OUTPUTS/openbind_a71ev2a_c1_knitwork_impure_1B07QS4.sdf', '/opt/xchem-fragalysis-2/maxwin/BulkDock/OUTPUTS/openbind_a71ev2a_c1_knitwork_impure_1B07X5R.sdf', '/opt/xchem-fragalysis-2/maxwin/openbind-hippo/a71ev2a/openbind_a71ev2a_c1_scaffold_products.sdf', '/opt/xchem-fragalysis-2/maxwin/openbind-hippo/a71ev2a/cycle_01/bulkdock/openbind_a71ev2a_c1_scaffold_products.sdf', '/opt/xchem-fragalysis-2/maxwin/openbind-hippo/a71ev2a/cycle_01/bulkdock/openbind_a71ev2a_c1_scaffolds.sdf']

>  <fragmenstein_runtime>  (1087) 
1.406992

$$$$
C9146-P364
     RDKit          3D

 14 14  0  0  0  0  0  0  0  0999 V2000
   10.8220   15.7264   25.7821 C   0  0  0  0  0  0  0  0  0  0  0  0
   11.1567   14.6704   24.8850 O   0  0  0  0  0  0  0  0  0  0  0  0
    9.9786   14.3525   24.0927 N   0  0  0  0  0  0  0  0  0  0  0  0
    9.5771   12.9935   24.4477 C   0  0  0  0  0  0  0  0  0  0  0  0
    8.0838   12.9408   24.8743 C   0  0  0  0  0  0  0  0  0  0  0  0
    7.7377   11.4709   25.1478 C   0  0  0  0  0  0  0  0  0  0  0  0
    7.8120   13.7373   26.1630 C   0  0  0  0  0  0  0  0  0  0  0  0
    7.1748   13.5185   23.7750 C   0  0  0  0  0  0  0  0  0  0  0  0
   10.3065   14.4941   22.6543 C   0  0  2  0  0  0  0  0  0  0  0  0
   11.7521   14.2295   22.2338 C   0  0  0  0  0  0  0  0  0  0  0  0
   12.4242   15.5913   22.2813 C   0  0  0  0  0  0  0  0  0  0  0  0
   11.3697   16.5187   22.0542 N   0  0  0  0  0  0  0  0  0  0  0  0
   10.1329   15.9551   22.2584 C   0  0  0  0  0  0  0  0  0  0  0  0
    9.0856   16.5717   22.1718 O   0  0  0  0  0  0  0  0  0  0  0  0
  1  2  1  0
  2  3  1  0
  3  4  1  0
  4  5  1  0
  5  6  1  0
  5  7  1  0
  5  8  1  0
  9  3  1  1
  9 10  1  0
 10 11  1  0
 11 12  1  0
 12 13  1  0
 13 14  2  0
 13  9  1  0
M  END
>  <ref_pdb>  (1088) 
A4445b

>  <subsites>  (1088) 
1 - Active Site

>  <HIPPO Compound ID>  (1088) 
9126

>  <energy_score>  (1088) 
-42.251507

>  <fragmenstein_mode>  (1088) 
expansion

>  <scratch_subdir>  (1088) 
/opt/xchem-fragalysis-2/maxwin/BulkDock/SCRATCH/512031/C9146-P364

>  <smiles>  (1088) 
CON(CC(C)(C)C)[C@@H]1CCNC1=O

>  <alias>  (1088) 
C9146-P364

>  <ref_mols>  (1088) 
A4445b,A0528a

>  <inspiration_score>  (1088) 
None

>  <tags>  (1088) 
BulkDock Fragalysis export,fragmenstein_placed,openbind_a71ev2a_c1_knitwork_impure,openbind_a71ev2a_c1_scaffolds

>  <fragmenstein_outcome>  (1088) 
acceptable

>  <fragmenstein_error>  (1088) 


>  <distance_score>  (1088) 
0.999105

>  <inchikey>  (1088) 
SYHGTEQZJUIFDX-UHFFFAOYSA-N

>  <name>  (1088) 
C9146-P364

>  <HIPPO Pose ID>  (1088) 
471340

>  <Energy>  (1088) 
52.921299

>  <exports>  (1088) 
['/opt/xchem-fragalysis-2/maxwin/BulkDock/OUTPUTS/openbind_a71ev2a_c1_knitwork_impure_165VXJF.sdf', '/opt/xchem-fragalysis-2/maxwin/BulkDock/OUTPUTS/openbind_a71ev2a_c1_knitwork_impure_1B07QS4.sdf', '/opt/xchem-fragalysis-2/maxwin/BulkDock/OUTPUTS/openbind_a71ev2a_c1_knitwork_impure_1B07X5R.sdf', '/opt/xchem-fragalysis-2/maxwin/openbind-hippo/a71ev2a/openbind_a71ev2a_c1_scaffold_products.sdf', '/opt/xchem-fragalysis-2/maxwin/openbind-hippo/a71ev2a/cycle_01/bulkdock/openbind_a71ev2a_c1_scaffold_products.sdf', '/opt/xchem-fragalysis-2/maxwin/openbind-hippo/a71ev2a/cycle_01/bulkdock/openbind_a71ev2a_c1_scaffolds.sdf']

>  <fragmenstein_runtime>  (1088) 
2.109326

$$$$
C9356-P204
     RDKit          3D

 15 15  0  0  0  0  0  0  0  0999 V2000
   12.2482   15.3279   22.6188 C   0  0  0  0  0  0  0  0  0  0  0  0
   11.4958   14.7342   23.8143 C   0  0  0  0  0  0  0  0  0  0  0  0
   12.1757   13.4249   24.1883 C   0  0  0  0  0  0  0  0  0  0  0  0
    9.9744   14.6245   23.5553 C   0  0  1  0  0  0  0  0  0  0  0  0
    9.6524   14.3856   22.1429 C   0  0  0  0  0  0  0  0  0  0  0  0
    9.4630   14.3629   21.0010 N   0  0  0  0  0  0  0  0  0  0  0  0
    9.3540   13.6935   24.5238 N   0  0  0  0  0  0  0  0  0  0  0  0
    7.7426   13.9759   24.8573 S   0  0  0  0  0  0  0  0  0  0  0  0
    7.0166   14.1745   23.6360 O   0  0  0  0  0  0  0  0  0  0  0  0
    7.7475   14.9325   25.9392 O   0  0  0  0  0  0  0  0  0  0  0  0
    7.4170   12.4735   25.5079 N   0  0  0  0  0  0  0  0  0  0  0  0
    6.0842   12.3256   26.1255 C   0  0  0  0  0  0  0  0  0  0  0  0
    6.0135   10.8380   26.4031 C   0  0  0  0  0  0  0  0  0  0  0  0
    6.8440   10.1834   25.3155 C   0  0  0  0  0  0  0  0  0  0  0  0
    7.5848   11.3085   24.6135 C   0  0  0  0  0  0  0  0  0  0  0  0
  1  2  1  0
  2  3  1  0
  2  4  1  0
  4  5  1  6
  5  6  3  0
  4  7  1  0
  7  8  1  0
  8  9  2  0
  8 10  2  0
  8 11  1  0
 11 12  1  0
 12 13  1  0
 13 14  1  0
 14 15  1  0
 15 11  1  0
M  END
>  <ref_pdb>  (1089) 
A3685a

>  <subsites>  (1089) 
1 - Active Site

>  <HIPPO Compound ID>  (1089) 
3532

>  <energy_score>  (1089) 
-61.890313

>  <fragmenstein_mode>  (1089) 
expansion

>  <scratch_subdir>  (1089) 
/opt/xchem-fragalysis-2/maxwin/BulkDock/SCRATCH/512031/C9356-P204

>  <smiles>  (1089) 
CC(C)[C@@H](C#N)NS(=O)(=O)N1CCCC1

>  <alias>  (1089) 
C9356-P204

>  <ref_mols>  (1089) 
A3685a,A0719a

>  <inspiration_score>  (1089) 
None

>  <tags>  (1089) 
BulkDock Fragalysis export,fragmenstein_placed,openbind_a71ev2a_c1_knitwork_impure,openbind_a71ev2a_c1_scaffolds

>  <fragmenstein_outcome>  (1089) 
acceptable

>  <fragmenstein_error>  (1089) 


>  <distance_score>  (1089) 
0.913631

>  <inchikey>  (1089) 
RCYHJILZPFRWLW-UHFFFAOYSA-N

>  <name>  (1089) 
C9356-P204

>  <HIPPO Pose ID>  (1089) 
471747

>  <Energy>  (1089) 
-170.614587

>  <exports>  (1089) 
['/opt/xchem-fragalysis-2/maxwin/BulkDock/OUTPUTS/openbind_a71ev2a_c1_knitwork_impure_165VXJF.sdf', '/opt/xchem-fragalysis-2/maxwin/BulkDock/OUTPUTS/openbind_a71ev2a_c1_knitwork_impure_1B07QS4.sdf', '/opt/xchem-fragalysis-2/maxwin/BulkDock/OUTPUTS/openbind_a71ev2a_c1_knitwork_impure_1B07X5R.sdf', '/opt/xchem-fragalysis-2/maxwin/openbind-hippo/a71ev2a/openbind_a71ev2a_c1_scaffold_products.sdf', '/opt/xchem-fragalysis-2/maxwin/openbind-hippo/a71ev2a/cycle_01/bulkdock/openbind_a71ev2a_c1_scaffold_products.sdf', '/opt/xchem-fragalysis-2/maxwin/openbind-hippo/a71ev2a/cycle_01/bulkdock/openbind_a71ev2a_c1_scaffolds.sdf']

>  <fragmenstein_runtime>  (1089) 
13.867475

$$$$
C9372-P204
     RDKit          3D

 16 16  0  0  0  0  0  0  0  0999 V2000
    6.8923   14.4546   23.9787 O   0  0  0  0  0  0  0  0  0  0  0  0
    7.5995   14.0532   25.1671 S   0  0  0  0  0  0  0  0  0  0  0  0
    7.2842   14.5810   26.4793 O   0  0  0  0  0  0  0  0  0  0  0  0
    9.2381   14.4113   24.9733 N   0  0  0  0  0  0  0  0  0  0  0  0
    9.7912   14.3181   23.6267 C   0  0  0  0  0  0  0  0  0  0  0  0
   11.2573   14.7345   23.6383 C   0  0  0  0  0  0  0  0  0  0  0  0
   11.9302   14.5458   22.2789 C   0  0  0  0  0  0  0  0  0  0  0  0
   11.1049   15.0208   21.1008 C   0  0  0  0  0  0  0  0  0  0  0  0
   11.7693   14.8430   19.9462 F   0  0  0  0  0  0  0  0  0  0  0  0
    9.9391   14.3430   21.0259 F   0  0  0  0  0  0  0  0  0  0  0  0
   10.8103   16.3293   21.2228 F   0  0  0  0  0  0  0  0  0  0  0  0
    7.6328   12.2998   25.3248 C   0  0  2  0  0  0  0  0  0  0  0  0
    7.8144   11.4540   24.1062 C   0  0  0  0  0  0  0  0  0  0  0  0
    7.4363   10.0902   24.6524 C   0  0  0  0  0  0  0  0  0  0  0  0
    6.3295   10.3331   25.5758 N   0  0  0  0  0  0  0  0  0  0  0  0
    6.3771   11.7475   25.9701 C   0  0  0  0  0  0  0  0  0  0  0  0
  1  2  2  0
  2  3  2  0
  2  4  1  0
  4  5  1  0
  5  6  1  0
  6  7  1  0
  7  8  1  0
  8  9  1  0
  8 10  1  0
  8 11  1  0
 12  2  1  6
 12 13  1  0
 13 14  1  0
 14 15  1  0
 15 16  1  0
 16 12  1  0
M  END
>  <ref_pdb>  (1090) 
A3685a

>  <subsites>  (1090) 
1 - Active Site

>  <HIPPO Compound ID>  (1090) 
20145

>  <energy_score>  (1090) 
-48.824792

>  <fragmenstein_mode>  (1090) 
expansion

>  <scratch_subdir>  (1090) 
/opt/xchem-fragalysis-2/maxwin/BulkDock/SCRATCH/512031/C9372-P204

>  <smiles>  (1090) 
O=S(=O)(NCCCC(F)(F)F)[C@@H]1CCNC1

>  <alias>  (1090) 
C9372-P204

>  <ref_mols>  (1090) 
A3685a,A0719a

>  <inspiration_score>  (1090) 
None

>  <tags>  (1090) 
BulkDock Fragalysis export,fragmenstein_placed,openbind_a71ev2a_c1_knitwork_impure,openbind_a71ev2a_c1_scaffolds

>  <fragmenstein_outcome>  (1090) 
acceptable

>  <fragmenstein_error>  (1090) 


>  <distance_score>  (1090) 
0.931678

>  <inchikey>  (1090) 
GYZAOFILUIIAKQ-UHFFFAOYSA-N

>  <name>  (1090) 
C9372-P204

>  <HIPPO Pose ID>  (1090) 
471753

>  <Energy>  (1090) 
-64.670471

>  <exports>  (1090) 
['/opt/xchem-fragalysis-2/maxwin/BulkDock/OUTPUTS/openbind_a71ev2a_c1_knitwork_impure_165VXJF.sdf', '/opt/xchem-fragalysis-2/maxwin/BulkDock/OUTPUTS/openbind_a71ev2a_c1_knitwork_impure_1B07QS4.sdf', '/opt/xchem-fragalysis-2/maxwin/BulkDock/OUTPUTS/openbind_a71ev2a_c1_knitwork_impure_1B07X5R.sdf', '/opt/xchem-fragalysis-2/maxwin/openbind-hippo/a71ev2a/openbind_a71ev2a_c1_scaffold_products.sdf', '/opt/xchem-fragalysis-2/maxwin/openbind-hippo/a71ev2a/cycle_01/bulkdock/openbind_a71ev2a_c1_scaffold_products.sdf', '/opt/xchem-fragalysis-2/maxwin/openbind-hippo/a71ev2a/cycle_01/bulkdock/openbind_a71ev2a_c1_scaffolds.sdf']

>  <fragmenstein_runtime>  (1090) 
54.145422

$$$$
C9376-P204
     RDKit          3D

 10 10  0  0  0  0  0  0  0  0999 V2000
    9.9173   14.4779   25.1216 C   0  0  0  0  0  0  0  0  0  0  0  0
    8.9927   14.3603   23.9214 C   0  0  1  0  0  0  0  0  0  0  0  0
    9.6495   13.6808   22.8735 O   0  0  0  0  0  0  0  0  0  0  0  0
    7.6246   13.7764   24.3046 C   0  0  0  0  0  0  0  0  0  0  0  0
    6.5844   14.3778   24.0298 O   0  0  0  0  0  0  0  0  0  0  0  0
    7.6361   12.4487   25.0520 C   0  0  2  0  0  0  0  0  0  0  0  0
    8.0385   11.2752   24.1977 C   0  0  0  0  0  0  0  0  0  0  0  0
    7.3545   10.0886   24.8384 C   0  0  0  0  0  0  0  0  0  0  0  0
    6.3968   10.6531   25.8674 C   0  0  0  0  0  0  0  0  0  0  0  0
    6.3193   12.0911   25.6231 N   0  0  0  0  0  0  0  0  0  0  0  0
  2  1  1  1
  2  3  1  0
  2  4  1  0
  4  5  2  0
  6  4  1  6
  6  7  1  0
  7  8  1  0
  8  9  1  0
  9 10  1  0
 10  6  1  0
M  END
>  <ref_pdb>  (1091) 
A3685a

>  <subsites>  (1091) 
1 - Active Site

>  <HIPPO Compound ID>  (1091) 
9376

>  <energy_score>  (1091) 
-12.705145

>  <fragmenstein_mode>  (1091) 
expansion

>  <scratch_subdir>  (1091) 
/opt/xchem-fragalysis-2/maxwin/BulkDock/SCRATCH/512031/C9376-P204

>  <smiles>  (1091) 
C[C@@H](O)C(=O)[C@@H]1CCCN1

>  <alias>  (1091) 
C9376-P204

>  <ref_mols>  (1091) 
A3685a,A0719a

>  <inspiration_score>  (1091) 
None

>  <tags>  (1091) 
BulkDock Fragalysis export,fragmenstein_placed,openbind_a71ev2a_c1_knitwork_impure,openbind_a71ev2a_c1_scaffolds

>  <fragmenstein_outcome>  (1091) 
acceptable

>  <fragmenstein_error>  (1091) 


>  <distance_score>  (1091) 
0.993438

>  <inchikey>  (1091) 
FWKKRHSZSZHMCS-UHFFFAOYSA-N

>  <name>  (1091) 
C9376-P204

>  <HIPPO Pose ID>  (1091) 
471756

>  <Energy>  (1091) 
66.376015

>  <exports>  (1091) 
['/opt/xchem-fragalysis-2/maxwin/BulkDock/OUTPUTS/openbind_a71ev2a_c1_knitwork_impure_165VXJF.sdf', '/opt/xchem-fragalysis-2/maxwin/BulkDock/OUTPUTS/openbind_a71ev2a_c1_knitwork_impure_1B07QS4.sdf', '/opt/xchem-fragalysis-2/maxwin/BulkDock/OUTPUTS/openbind_a71ev2a_c1_knitwork_impure_1B07X5R.sdf', '/opt/xchem-fragalysis-2/maxwin/openbind-hippo/a71ev2a/openbind_a71ev2a_c1_scaffold_products.sdf', '/opt/xchem-fragalysis-2/maxwin/openbind-hippo/a71ev2a/cycle_01/bulkdock/openbind_a71ev2a_c1_scaffold_products.sdf', '/opt/xchem-fragalysis-2/maxwin/openbind-hippo/a71ev2a/cycle_01/bulkdock/openbind_a71ev2a_c1_scaffolds.sdf']

>  <fragmenstein_runtime>  (1091) 
0.931111

$$$$
C9380-P204
     RDKit          3D

 13 13  0  0  0  0  0  0  0  0999 V2000
    8.0414    9.4883   24.1833 C   0  0  0  0  0  0  0  0  0  0  0  0
    8.1361   10.9828   23.9648 C   0  0  0  0  0  0  0  0  0  0  0  0
    9.4388   11.2502   23.2392 C   0  0  0  0  0  0  0  0  0  0  0  0
    8.0702   11.6441   25.2299 O   0  0  0  0  0  0  0  0  0  0  0  0
    7.2082   12.7984   25.2513 C   0  0  0  0  0  0  0  0  0  0  0  0
    7.7125   14.0213   24.4481 C   0  0  2  0  0  0  0  0  0  0  0  0
    7.2676   13.8746   23.0994 O   0  0  0  0  0  0  0  0  0  0  0  0
    9.2482   14.2024   24.6135 C   0  0  0  0  0  0  0  0  0  0  0  0
   10.0651   14.9601   23.6568 N   0  0  0  0  0  0  0  0  0  0  0  0
   11.4641   14.5081   23.6681 C   0  0  0  0  0  0  0  0  0  0  0  0
   12.0381   14.8571   22.3039 C   0  0  0  0  0  0  0  0  0  0  0  0
   10.9006   15.5007   21.5447 C   0  0  0  0  0  0  0  0  0  0  0  0
    9.6642   14.9838   22.2508 C   0  0  0  0  0  0  0  0  0  0  0  0
  1  2  1  0
  2  3  1  0
  2  4  1  0
  4  5  1  0
  5  6  1  0
  6  7  1  6
  6  8  1  0
  8  9  1  0
  9 10  1  0
 10 11  1  0
 11 12  1  0
 12 13  1  0
 13  9  1  0
M  END
>  <ref_pdb>  (1092) 
A3685a

>  <subsites>  (1092) 
1 - Active Site

>  <HIPPO Compound ID>  (1092) 
6132

>  <energy_score>  (1092) 
-13.354201

>  <fragmenstein_mode>  (1092) 
expansion

>  <scratch_subdir>  (1092) 
/opt/xchem-fragalysis-2/maxwin/BulkDock/SCRATCH/512031/C9380-P204

>  <smiles>  (1092) 
CC(C)OC[C@H](O)CN1CCCC1

>  <alias>  (1092) 
C9380-P204

>  <ref_mols>  (1092) 
A3685a,A0719a

>  <inspiration_score>  (1092) 
None

>  <tags>  (1092) 
BulkDock Fragalysis export,fragmenstein_placed,openbind_a71ev2a_c1_knitwork_impure,openbind_a71ev2a_c1_scaffolds

>  <fragmenstein_outcome>  (1092) 
acceptable

>  <fragmenstein_error>  (1092) 


>  <distance_score>  (1092) 
0.912185

>  <inchikey>  (1092) 
DQQDJWRXBCMXIH-UHFFFAOYSA-N

>  <name>  (1092) 
C9380-P204

>  <HIPPO Pose ID>  (1092) 
471760

>  <Energy>  (1092) 
72.683223

>  <exports>  (1092) 
['/opt/xchem-fragalysis-2/maxwin/BulkDock/OUTPUTS/openbind_a71ev2a_c1_knitwork_impure_165VXJF.sdf', '/opt/xchem-fragalysis-2/maxwin/BulkDock/OUTPUTS/openbind_a71ev2a_c1_knitwork_impure_1B07QS4.sdf', '/opt/xchem-fragalysis-2/maxwin/BulkDock/OUTPUTS/openbind_a71ev2a_c1_knitwork_impure_1B07X5R.sdf', '/opt/xchem-fragalysis-2/maxwin/openbind-hippo/a71ev2a/openbind_a71ev2a_c1_scaffold_products.sdf', '/opt/xchem-fragalysis-2/maxwin/openbind-hippo/a71ev2a/cycle_01/bulkdock/openbind_a71ev2a_c1_scaffold_products.sdf', '/opt/xchem-fragalysis-2/maxwin/openbind-hippo/a71ev2a/cycle_01/bulkdock/openbind_a71ev2a_c1_scaffolds.sdf']

>  <fragmenstein_runtime>  (1092) 
2.309604

$$$$
C9382-P204
     RDKit          3D

 15 15  0  0  0  0  0  0  0  0999 V2000
   12.4488   13.9879   23.5309 C   0  0  0  0  0  0  0  0  0  0  0  0
   11.2526   13.9345   24.4533 C   0  0  0  0  0  0  0  0  0  0  0  0
   11.4926   14.9511   25.5852 C   0  0  0  0  0  0  0  0  0  0  0  0
    9.8746   14.0519   23.7334 C   0  0  2  0  0  0  0  0  0  0  0  0
    9.7769   15.2097   22.7354 C   0  0  0  0  0  0  0  0  0  0  0  0
   10.5473   14.9901   20.8069 I   0  0  0  0  0  0  0  0  0  0  0  0
    8.9228   14.2819   24.8470 N   0  0  0  0  0  0  0  0  0  0  0  0
    7.2979   14.0012   24.7627 S   0  0  0  0  0  0  0  0  0  0  0  0
    6.8611   14.0362   23.3959 O   0  0  0  0  0  0  0  0  0  0  0  0
    6.7401   14.8093   25.8205 O   0  0  0  0  0  0  0  0  0  0  0  0
    7.3483   12.4280   25.3463 N   0  0  0  0  0  0  0  0  0  0  0  0
    6.0902   11.9677   25.9746 C   0  0  0  0  0  0  0  0  0  0  0  0
    6.2750   10.4717   26.0939 C   0  0  0  0  0  0  0  0  0  0  0  0
    7.2095   10.0825   24.9706 C   0  0  0  0  0  0  0  0  0  0  0  0
    7.8129   11.3667   24.4379 C   0  0  0  0  0  0  0  0  0  0  0  0
  1  2  1  0
  2  3  1  0
  2  4  1  0
  4  5  1  6
  5  6  1  0
  4  7  1  0
  7  8  1  0
  8  9  2  0
  8 10  2  0
  8 11  1  0
 11 12  1  0
 12 13  1  0
 13 14  1  0
 14 15  1  0
 15 11  1  0
M  END
>  <ref_pdb>  (1093) 
A3685a

>  <subsites>  (1093) 
1 - Active Site

>  <HIPPO Compound ID>  (1093) 
13629

>  <energy_score>  (1093) 
-56.437841

>  <fragmenstein_mode>  (1093) 
expansion

>  <scratch_subdir>  (1093) 
/opt/xchem-fragalysis-2/maxwin/BulkDock/SCRATCH/512031/C9382-P204

>  <smiles>  (1093) 
CC(C)[C@H](CI)NS(=O)(=O)N1CCCC1

>  <alias>  (1093) 
C9382-P204

>  <ref_mols>  (1093) 
A3685a,A0719a

>  <inspiration_score>  (1093) 
None

>  <tags>  (1093) 
BulkDock Fragalysis export,fragmenstein_placed,openbind_a71ev2a_c1_knitwork_impure,openbind_a71ev2a_c1_scaffolds

>  <fragmenstein_outcome>  (1093) 
acceptable

>  <fragmenstein_error>  (1093) 


>  <distance_score>  (1093) 
0.942977

>  <inchikey>  (1093) 
WQDYLJGBYWAYGW-UHFFFAOYSA-N

>  <name>  (1093) 
C9382-P204

>  <HIPPO Pose ID>  (1093) 
471762

>  <Energy>  (1093) 
-146.82795

>  <exports>  (1093) 
['/opt/xchem-fragalysis-2/maxwin/BulkDock/OUTPUTS/openbind_a71ev2a_c1_knitwork_impure_165VXJF.sdf', '/opt/xchem-fragalysis-2/maxwin/BulkDock/OUTPUTS/openbind_a71ev2a_c1_knitwork_impure_1B07QS4.sdf', '/opt/xchem-fragalysis-2/maxwin/BulkDock/OUTPUTS/openbind_a71ev2a_c1_knitwork_impure_1B07X5R.sdf', '/opt/xchem-fragalysis-2/maxwin/openbind-hippo/a71ev2a/openbind_a71ev2a_c1_scaffold_products.sdf', '/opt/xchem-fragalysis-2/maxwin/openbind-hippo/a71ev2a/cycle_01/bulkdock/openbind_a71ev2a_c1_scaffold_products.sdf', '/opt/xchem-fragalysis-2/maxwin/openbind-hippo/a71ev2a/cycle_01/bulkdock/openbind_a71ev2a_c1_scaffolds.sdf']

>  <fragmenstein_runtime>  (1093) 
13.056257

$$$$
C9385-P204
     RDKit          3D

 12 12  0  0  0  0  0  0  0  0999 V2000
   11.3324   14.5345   23.4659 C   0  0  0  0  0  0  0  0  0  0  0  0
    9.8490   14.3161   23.4617 C   0  0  0  0  0  0  0  0  0  0  0  0
    9.1774   14.1084   22.4577 O   0  0  0  0  0  0  0  0  0  0  0  0
    9.1555   14.3495   24.8137 C   0  0  0  0  0  0  0  0  0  0  0  0
    9.8338   14.4374   25.8321 O   0  0  0  0  0  0  0  0  0  0  0  0
    7.6345   14.2461   24.8125 C   0  0  1  0  0  0  0  0  0  0  0  0
    7.0115   15.0135   23.7838 O   0  0  0  0  0  0  0  0  0  0  0  0
    7.0663   12.8126   24.8230 C   0  0  1  0  0  0  0  0  0  0  0  0
    7.9738   11.6954   24.3365 C   0  0  0  0  0  0  0  0  0  0  0  0
    7.3774   10.4292   24.9298 C   0  0  0  0  0  0  0  0  0  0  0  0
    6.3921   10.8956   25.9838 C   0  0  0  0  0  0  0  0  0  0  0  0
    6.6571   12.3224   26.1608 N   0  0  0  0  0  0  0  0  0  0  0  0
  1  2  1  0
  2  3  2  0
  2  4  1  0
  4  5  2  0
  4  6  1  0
  6  7  1  6
  6  8  1  0
  8  9  1  1
  9 10  1  0
 10 11  1  0
 11 12  1  0
 12  8  1  0
M  END
>  <ref_pdb>  (1094) 
A3685a

>  <subsites>  (1094) 
1 - Active Site

>  <HIPPO Compound ID>  (1094) 
7092

>  <energy_score>  (1094) 
-39.019377

>  <fragmenstein_mode>  (1094) 
expansion

>  <scratch_subdir>  (1094) 
/opt/xchem-fragalysis-2/maxwin/BulkDock/SCRATCH/512031/C9385-P204

>  <smiles>  (1094) 
CC(=O)C(=O)[C@@H](O)[C@H]1CCCN1

>  <alias>  (1094) 
C9385-P204

>  <ref_mols>  (1094) 
A3685a,A0719a

>  <inspiration_score>  (1094) 
None

>  <tags>  (1094) 
BulkDock Fragalysis export,fragmenstein_placed,openbind_a71ev2a_c1_knitwork_impure,openbind_a71ev2a_c1_scaffolds

>  <fragmenstein_outcome>  (1094) 
acceptable

>  <fragmenstein_error>  (1094) 


>  <distance_score>  (1094) 
0.857462

>  <inchikey>  (1094) 
JPZZIQFEUYXBCW-UHFFFAOYSA-N

>  <name>  (1094) 
C9385-P204

>  <HIPPO Pose ID>  (1094) 
471763

>  <Energy>  (1094) 
73.798231

>  <exports>  (1094) 
['/opt/xchem-fragalysis-2/maxwin/BulkDock/OUTPUTS/openbind_a71ev2a_c1_knitwork_impure_165VXJF.sdf', '/opt/xchem-fragalysis-2/maxwin/BulkDock/OUTPUTS/openbind_a71ev2a_c1_knitwork_impure_1B07QS4.sdf', '/opt/xchem-fragalysis-2/maxwin/BulkDock/OUTPUTS/openbind_a71ev2a_c1_knitwork_impure_1B07X5R.sdf', '/opt/xchem-fragalysis-2/maxwin/openbind-hippo/a71ev2a/openbind_a71ev2a_c1_scaffold_products.sdf', '/opt/xchem-fragalysis-2/maxwin/openbind-hippo/a71ev2a/cycle_01/bulkdock/openbind_a71ev2a_c1_scaffold_products.sdf', '/opt/xchem-fragalysis-2/maxwin/openbind-hippo/a71ev2a/cycle_01/bulkdock/openbind_a71ev2a_c1_scaffolds.sdf']

>  <fragmenstein_runtime>  (1094) 
1.449649

$$$$
C9386-P204
     RDKit          3D

 14 14  0  0  0  0  0  0  0  0999 V2000
   12.2376   15.0836   22.7777 C   0  0  0  0  0  0  0  0  0  0  0  0
   11.3726   14.4715   23.5971 C   0  0  0  0  0  0  0  0  0  0  0  0
    9.9564   14.0510   23.2391 C   0  0  0  0  0  0  0  0  0  0  0  0
    9.4123   14.7667   21.9976 C   0  0  0  0  0  0  0  0  0  0  0  0
   10.0254   12.5582   22.9992 C   0  0  0  0  0  0  0  0  0  0  0  0
    9.1618   14.3378   24.4440 N   0  0  0  0  0  0  0  0  0  0  0  0
    7.5424   13.9691   24.6427 S   0  0  0  0  0  0  0  0  0  0  0  0
    6.8713   13.9560   23.3694 O   0  0  0  0  0  0  0  0  0  0  0  0
    7.1425   14.8783   25.7011 O   0  0  0  0  0  0  0  0  0  0  0  0
    7.5497   12.3557   25.3658 C   0  0  2  0  0  0  0  0  0  0  0  0
    7.5337   11.1290   24.4948 C   0  0  0  0  0  0  0  0  0  0  0  0
    6.8238   10.0704   25.3207 C   0  0  0  0  0  0  0  0  0  0  0  0
    6.3793   10.7223   26.5505 N   0  0  0  0  0  0  0  0  0  0  0  0
    6.3237   12.1539   26.2357 C   0  0  0  0  0  0  0  0  0  0  0  0
  1  2  2  0
  2  3  1  0
  3  4  1  0
  3  5  1  0
  3  6  1  0
  6  7  1  0
  7  8  2  0
  7  9  2  0
 10  7  1  6
 10 11  1  0
 11 12  1  0
 12 13  1  0
 13 14  1  0
 14 10  1  0
M  END
>  <ref_pdb>  (1095) 
A3685a

>  <subsites>  (1095) 
1 - Active Site

>  <HIPPO Compound ID>  (1095) 
7116

>  <energy_score>  (1095) 
-43.748473

>  <fragmenstein_mode>  (1095) 
expansion

>  <scratch_subdir>  (1095) 
/opt/xchem-fragalysis-2/maxwin/BulkDock/SCRATCH/512031/C9386-P204

>  <smiles>  (1095) 
C=CC(C)(C)NS(=O)(=O)[C@@H]1CCNC1

>  <alias>  (1095) 
C9386-P204

>  <ref_mols>  (1095) 
A3685a,A0719a

>  <inspiration_score>  (1095) 
None

>  <tags>  (1095) 
BulkDock Fragalysis export,fragmenstein_placed,openbind_a71ev2a_c1_knitwork_impure,openbind_a71ev2a_c1_scaffolds

>  <fragmenstein_outcome>  (1095) 
acceptable

>  <fragmenstein_error>  (1095) 


>  <distance_score>  (1095) 
0.996557

>  <inchikey>  (1095) 
RTPIGKAAQCUSFW-UHFFFAOYSA-N

>  <name>  (1095) 
C9386-P204

>  <HIPPO Pose ID>  (1095) 
471764

>  <Energy>  (1095) 
-65.230543

>  <exports>  (1095) 
['/opt/xchem-fragalysis-2/maxwin/BulkDock/OUTPUTS/openbind_a71ev2a_c1_knitwork_impure_165VXJF.sdf', '/opt/xchem-fragalysis-2/maxwin/BulkDock/OUTPUTS/openbind_a71ev2a_c1_knitwork_impure_1B07QS4.sdf', '/opt/xchem-fragalysis-2/maxwin/BulkDock/OUTPUTS/openbind_a71ev2a_c1_knitwork_impure_1B07X5R.sdf', '/opt/xchem-fragalysis-2/maxwin/openbind-hippo/a71ev2a/openbind_a71ev2a_c1_scaffold_products.sdf', '/opt/xchem-fragalysis-2/maxwin/openbind-hippo/a71ev2a/cycle_01/bulkdock/openbind_a71ev2a_c1_scaffold_products.sdf', '/opt/xchem-fragalysis-2/maxwin/openbind-hippo/a71ev2a/cycle_01/bulkdock/openbind_a71ev2a_c1_scaffolds.sdf']

>  <fragmenstein_runtime>  (1095) 
91.012941

$$$$
C9393-P204
     RDKit          3D

 15 15  0  0  0  0  0  0  0  0999 V2000
   11.3636   14.9864   18.4599 C   0  0  0  0  0  0  0  0  0  0  0  0
   10.8035   15.2892   19.8310 C   0  0  0  0  0  0  0  0  0  0  0  0
   11.7773   14.8520   20.9162 C   0  0  0  0  0  0  0  0  0  0  0  0
   11.2528   15.0830   22.3232 C   0  0  2  0  0  0  0  0  0  0  0  0
   12.4495   14.1426   23.5797 Br  0  0  0  0  0  0  0  0  0  0  0  0
    9.8418   14.5615   22.5872 C   0  0  0  0  0  0  0  0  0  0  0  0
    9.6098   14.5202   24.0365 N   0  0  0  0  0  0  0  0  0  0  0  0
    8.2060   13.9614   24.6655 S   0  0  0  0  0  0  0  0  0  0  0  0
    7.1603   14.1487   23.6949 O   0  0  0  0  0  0  0  0  0  0  0  0
    8.1449   14.4809   26.0101 O   0  0  0  0  0  0  0  0  0  0  0  0
    8.4939   12.3063   24.8086 N   0  0  0  0  0  0  0  0  0  0  0  0
    7.3075   11.5793   25.3487 C   0  0  0  0  0  0  0  0  0  0  0  0
    7.4433   10.1426   24.8750 C   0  0  0  0  0  0  0  0  0  0  0  0
    8.6262   10.1056   23.9326 C   0  0  0  0  0  0  0  0  0  0  0  0
    8.9002   11.5584   23.6042 C   0  0  0  0  0  0  0  0  0  0  0  0
  1  2  1  0
  2  3  1  0
  3  4  1  0
  4  5  1  1
  4  6  1  0
  6  7  1  0
  7  8  1  0
  8  9  2  0
  8 10  2  0
  8 11  1  0
 11 12  1  0
 12 13  1  0
 13 14  1  0
 14 15  1  0
 15 11  1  0
M  END
>  <ref_pdb>  (1096) 
A3685a

>  <subsites>  (1096) 
1 - Active Site

>  <HIPPO Compound ID>  (1096) 
20058

>  <energy_score>  (1096) 
-22.394635

>  <fragmenstein_mode>  (1096) 
expansion

>  <scratch_subdir>  (1096) 
/opt/xchem-fragalysis-2/maxwin/BulkDock/SCRATCH/512031/C9393-P204

>  <smiles>  (1096) 
CCC[C@H](Br)CNS(=O)(=O)N1CCCC1

>  <alias>  (1096) 
C9393-P204

>  <ref_mols>  (1096) 
A3685a,A0719a

>  <inspiration_score>  (1096) 
None

>  <tags>  (1096) 
BulkDock Fragalysis export,fragmenstein_placed,openbind_a71ev2a_c1_knitwork_impure,openbind_a71ev2a_c1_scaffolds

>  <fragmenstein_outcome>  (1096) 
acceptable

>  <fragmenstein_error>  (1096) 


>  <distance_score>  (1096) 
0.827109

>  <inchikey>  (1096) 
JQBYUAVAPLZUQX-UHFFFAOYSA-N

>  <name>  (1096) 
C9393-P204

>  <HIPPO Pose ID>  (1096) 
471767

>  <Energy>  (1096) 
-157.113288

>  <exports>  (1096) 
['/opt/xchem-fragalysis-2/maxwin/BulkDock/OUTPUTS/openbind_a71ev2a_c1_knitwork_impure_165VXJF.sdf', '/opt/xchem-fragalysis-2/maxwin/BulkDock/OUTPUTS/openbind_a71ev2a_c1_knitwork_impure_1B07QS4.sdf', '/opt/xchem-fragalysis-2/maxwin/BulkDock/OUTPUTS/openbind_a71ev2a_c1_knitwork_impure_1B07X5R.sdf', '/opt/xchem-fragalysis-2/maxwin/openbind-hippo/a71ev2a/openbind_a71ev2a_c1_scaffold_products.sdf', '/opt/xchem-fragalysis-2/maxwin/openbind-hippo/a71ev2a/cycle_01/bulkdock/openbind_a71ev2a_c1_scaffold_products.sdf', '/opt/xchem-fragalysis-2/maxwin/openbind-hippo/a71ev2a/cycle_01/bulkdock/openbind_a71ev2a_c1_scaffolds.sdf']

>  <fragmenstein_runtime>  (1096) 
6.599553

$$$$
C9394-P204
     RDKit          3D

 13 13  0  0  0  0  0  0  0  0999 V2000
    5.5876   10.9915   27.2291 C   0  0  0  0  0  0  0  0  0  0  0  0
    6.0009   10.2377   26.2006 C   0  0  0  0  0  0  0  0  0  0  0  0
    7.0980   10.5201   25.2171 C   0  0  0  0  0  0  0  0  0  0  0  0
    7.7935   11.7189   25.5126 O   0  0  0  0  0  0  0  0  0  0  0  0
    7.0777   12.9041   25.1637 C   0  0  0  0  0  0  0  0  0  0  0  0
    7.7610   13.6444   24.0241 C   0  0  1  0  0  0  0  0  0  0  0  0
    7.1325   14.9172   23.8626 O   0  0  0  0  0  0  0  0  0  0  0  0
    9.2627   13.8215   24.3153 C   0  0  0  0  0  0  0  0  0  0  0  0
    9.9297   14.7038   23.3514 N   0  0  0  0  0  0  0  0  0  0  0  0
   11.3696   14.8044   23.6232 C   0  0  0  0  0  0  0  0  0  0  0  0
   12.0333   14.9716   22.2641 C   0  0  0  0  0  0  0  0  0  0  0  0
   10.8904   15.0801   21.2799 C   0  0  0  0  0  0  0  0  0  0  0  0
    9.8180   14.2578   21.9581 C   0  0  0  0  0  0  0  0  0  0  0  0
  1  2  2  0
  2  3  1  0
  3  4  1  0
  4  5  1  0
  5  6  1  0
  6  7  1  1
  6  8  1  0
  8  9  1  0
  9 10  1  0
 10 11  1  0
 11 12  1  0
 12 13  1  0
 13  9  1  0
M  END
>  <ref_pdb>  (1097) 
A3685a

>  <subsites>  (1097) 
1 - Active Site

>  <HIPPO Compound ID>  (1097) 
6083

>  <energy_score>  (1097) 
-17.067713

>  <fragmenstein_mode>  (1097) 
expansion

>  <scratch_subdir>  (1097) 
/opt/xchem-fragalysis-2/maxwin/BulkDock/SCRATCH/512031/C9394-P204

>  <smiles>  (1097) 
C=CCOC[C@@H](O)CN1CCCC1

>  <alias>  (1097) 
C9394-P204

>  <ref_mols>  (1097) 
A3685a,A0719a

>  <inspiration_score>  (1097) 
None

>  <tags>  (1097) 
BulkDock Fragalysis export,fragmenstein_placed,openbind_a71ev2a_c1_knitwork_impure,openbind_a71ev2a_c1_scaffolds

>  <fragmenstein_outcome>  (1097) 
acceptable

>  <fragmenstein_error>  (1097) 


>  <distance_score>  (1097) 
0.790572

>  <inchikey>  (1097) 
SMFBGIJWOIHSTQ-UHFFFAOYSA-N

>  <name>  (1097) 
C9394-P204

>  <HIPPO Pose ID>  (1097) 
471768

>  <Energy>  (1097) 
54.200988

>  <exports>  (1097) 
['/opt/xchem-fragalysis-2/maxwin/BulkDock/OUTPUTS/openbind_a71ev2a_c1_knitwork_impure_165VXJF.sdf', '/opt/xchem-fragalysis-2/maxwin/BulkDock/OUTPUTS/openbind_a71ev2a_c1_knitwork_impure_1B07QS4.sdf', '/opt/xchem-fragalysis-2/maxwin/BulkDock/OUTPUTS/openbind_a71ev2a_c1_knitwork_impure_1B07X5R.sdf', '/opt/xchem-fragalysis-2/maxwin/openbind-hippo/a71ev2a/openbind_a71ev2a_c1_scaffold_products.sdf', '/opt/xchem-fragalysis-2/maxwin/openbind-hippo/a71ev2a/cycle_01/bulkdock/openbind_a71ev2a_c1_scaffold_products.sdf', '/opt/xchem-fragalysis-2/maxwin/openbind-hippo/a71ev2a/cycle_01/bulkdock/openbind_a71ev2a_c1_scaffolds.sdf']

>  <fragmenstein_runtime>  (1097) 
2.111459

$$$$
C1585-P198
     RDKit          3D

 16 16  0  0  0  0  0  0  0  0999 V2000
   11.1964   15.7679   23.6447 O   0  0  0  0  0  0  0  0  0  0  0  0
   10.8999   14.9348   22.8865 C   0  0  0  0  0  0  0  0  0  0  0  0
   11.4055   14.9222   21.4497 C   0  0  0  0  0  0  0  0  0  0  0  0
   10.2619   15.3290   20.5472 C   0  0  0  0  0  0  0  0  0  0  0  0
    9.8065   16.5570   20.9216 F   0  0  0  0  0  0  0  0  0  0  0  0
    9.2059   14.4811   20.7457 F   0  0  0  0  0  0  0  0  0  0  0  0
   10.5827   15.3579   19.0612 C   0  0  0  0  0  0  0  0  0  0  0  0
   11.3529   16.4136   18.7571 F   0  0  0  0  0  0  0  0  0  0  0  0
   11.2633   14.2576   18.6622 F   0  0  0  0  0  0  0  0  0  0  0  0
    9.9193   13.7520   23.0335 N   0  0  0  0  0  0  0  0  0  0  0  0
    9.0365   13.4065   24.1013 C   0  0  0  0  0  0  0  0  0  0  0  0
    8.7014   11.9671   24.0527 C   0  0  0  0  0  0  0  0  0  0  0  0
    7.7089   11.3044   24.7371 C   0  0  0  0  0  0  0  0  0  0  0  0
    7.8303    9.9731   24.4829 O   0  0  0  0  0  0  0  0  0  0  0  0
    8.8887    9.8935   23.6261 C   0  0  0  0  0  0  0  0  0  0  0  0
    9.4255   11.0530   23.3129 N   0  0  0  0  0  0  0  0  0  0  0  0
  1  2  2  0
  2  3  1  0
  3  4  1  0
  4  5  1  0
  4  6  1  0
  4  7  1  0
  7  8  1  0
  7  9  1  0
  2 10  1  0
 10 11  1  0
 11 12  1  0
 12 13  2  0
 13 14  1  0
 14 15  1  0
 15 16  2  0
 16 12  1  0
M  END
>  <ref_pdb>  (1098) 
A3618a

>  <subsites>  (1098) 
1 - Active Site

>  <HIPPO Compound ID>  (1098) 
27918

>  <energy_score>  (1098) 
-1.154096

>  <fragmenstein_mode>  (1098) 
expansion

>  <scratch_subdir>  (1098) 
/opt/xchem-fragalysis-2/maxwin/BulkDock/SCRATCH/512031/C1585-P198

>  <smiles>  (1098) 
O=C(CC(F)(F)C(F)F)NCc1cocn1

>  <alias>  (1098) 
C1585-P198

>  <ref_mols>  (1098) 
A2846a,A3618a

>  <inspiration_score>  (1098) 
None

>  <tags>  (1098) 
BulkDock Fragalysis export,fragmenstein_placed,openbind_a71ev2a_c1_knitwork_impure,openbind_a71ev2a_c1_scaffolds

>  <fragmenstein_outcome>  (1098) 
acceptable

>  <fragmenstein_error>  (1098) 


>  <distance_score>  (1098) 
0.987905

>  <inchikey>  (1098) 
IBVLOOXRGBJCHW-UHFFFAOYSA-N

>  <name>  (1098) 
C1585-P198

>  <HIPPO Pose ID>  (1098) 
471789

>  <Energy>  (1098) 
21.332368

>  <exports>  (1098) 
['/opt/xchem-fragalysis-2/maxwin/BulkDock/OUTPUTS/openbind_a71ev2a_c1_knitwork_impure_165VXJF.sdf', '/opt/xchem-fragalysis-2/maxwin/BulkDock/OUTPUTS/openbind_a71ev2a_c1_knitwork_impure_1B07QS4.sdf', '/opt/xchem-fragalysis-2/maxwin/BulkDock/OUTPUTS/openbind_a71ev2a_c1_knitwork_impure_1B07X5R.sdf', '/opt/xchem-fragalysis-2/maxwin/openbind-hippo/a71ev2a/openbind_a71ev2a_c1_scaffold_products.sdf', '/opt/xchem-fragalysis-2/maxwin/openbind-hippo/a71ev2a/cycle_01/bulkdock/openbind_a71ev2a_c1_scaffold_products.sdf', '/opt/xchem-fragalysis-2/maxwin/openbind-hippo/a71ev2a/cycle_01/bulkdock/openbind_a71ev2a_c1_scaffolds.sdf']

>  <fragmenstein_runtime>  (1098) 
3.751025

$$$$
C1625-P136
     RDKit          3D

 14 14  0  0  0  0  0  0  0  0999 V2000
   10.1172   17.0629   19.8217 C   0  0  0  0  0  0  0  0  0  0  0  0
   10.2054   15.5551   19.7030 C   0  0  1  0  0  0  0  0  0  0  0  0
   11.5159   15.0481   18.6156 Cl  0  0  0  0  0  0  0  0  0  0  0  0
   10.3214   14.9106   21.0850 C   0  0  0  0  0  0  0  0  0  0  0  0
   11.7390   14.8588   21.6773 C   0  0  0  0  0  0  0  0  0  0  0  0
   11.7571   14.3916   23.1268 C   0  0  0  0  0  0  0  0  0  0  0  0
   10.8350   13.3178   23.3651 N   0  0  0  0  0  0  0  0  0  0  0  0
    9.7178   13.1754   24.4082 C   0  0  0  0  0  0  0  0  0  0  0  0
    9.3154   13.9368   25.1917 O   0  0  0  0  0  0  0  0  0  0  0  0
    9.1350   11.8532   24.3064 C   0  0  0  0  0  0  0  0  0  0  0  0
    8.0439   11.2847   24.9224 C   0  0  0  0  0  0  0  0  0  0  0  0
    7.9426    9.9610   24.5796 N   0  0  0  0  0  0  0  0  0  0  0  0
    8.9469    9.7795   23.7496 C   0  0  0  0  0  0  0  0  0  0  0  0
    9.7093   10.8853   23.5174 O   0  0  0  0  0  0  0  0  0  0  0  0
  2  1  1  1
  2  3  1  0
  2  4  1  0
  4  5  1  0
  5  6  1  0
  6  7  1  0
  7  8  1  0
  8  9  2  0
  8 10  1  0
 10 11  2  0
 11 12  1  0
 12 13  2  0
 13 14  1  0
 14 10  1  0
M  END
>  <ref_pdb>  (1099) 
A2846a

>  <subsites>  (1099) 
1 - Active Site

>  <HIPPO Compound ID>  (1099) 
3827

>  <energy_score>  (1099) 
-4.877833

>  <fragmenstein_mode>  (1099) 
expansion

>  <scratch_subdir>  (1099) 
/opt/xchem-fragalysis-2/maxwin/BulkDock/SCRATCH/512031/C1625-P136

>  <smiles>  (1099) 
C[C@@H](Cl)CCCNC(=O)c1cnco1

>  <alias>  (1099) 
C1625-P136

>  <ref_mols>  (1099) 
A2846a,A3618a

>  <inspiration_score>  (1099) 
None

>  <tags>  (1099) 
BulkDock Fragalysis export,fragmenstein_placed,openbind_a71ev2a_c1_knitwork_impure,openbind_a71ev2a_c1_scaffolds

>  <fragmenstein_outcome>  (1099) 
acceptable

>  <fragmenstein_error>  (1099) 


>  <distance_score>  (1099) 
0.906476

>  <inchikey>  (1099) 
OJPVDAKSEAPTQE-UHFFFAOYSA-N

>  <name>  (1099) 
C1625-P136

>  <HIPPO Pose ID>  (1099) 
471803

>  <Energy>  (1099) 
11.053104

>  <exports>  (1099) 
['/opt/xchem-fragalysis-2/maxwin/BulkDock/OUTPUTS/openbind_a71ev2a_c1_knitwork_impure_165VXJF.sdf', '/opt/xchem-fragalysis-2/maxwin/BulkDock/OUTPUTS/openbind_a71ev2a_c1_knitwork_impure_1B07QS4.sdf', '/opt/xchem-fragalysis-2/maxwin/BulkDock/OUTPUTS/openbind_a71ev2a_c1_knitwork_impure_1B07X5R.sdf', '/opt/xchem-fragalysis-2/maxwin/openbind-hippo/a71ev2a/openbind_a71ev2a_c1_scaffold_products.sdf', '/opt/xchem-fragalysis-2/maxwin/openbind-hippo/a71ev2a/cycle_01/bulkdock/openbind_a71ev2a_c1_scaffold_products.sdf', '/opt/xchem-fragalysis-2/maxwin/openbind-hippo/a71ev2a/cycle_01/bulkdock/openbind_a71ev2a_c1_scaffolds.sdf']

>  <fragmenstein_runtime>  (1099) 
1.624357

$$$$
C9549-P364
     RDKit          3D

 10 10  0  0  0  0  0  0  0  0999 V2000
    9.4291   10.0727   23.0042 O   0  0  0  0  0  0  0  0  0  0  0  0
    9.8960   10.9478   23.7202 C   0  0  0  0  0  0  0  0  0  0  0  0
    9.5939   12.4089   23.5538 C   0  0  0  0  0  0  0  0  0  0  0  0
    9.4034   13.1085   24.8928 C   0  0  0  0  0  0  0  0  0  0  0  0
    8.1199   12.8207   25.6415 C   0  0  0  0  0  0  0  0  0  0  0  0
    7.4625   11.5870   25.6256 C   0  0  0  0  0  0  0  0  0  0  0  0
    6.3192   11.4174   26.3990 C   0  0  0  0  0  0  0  0  0  0  0  0
    5.8039   12.3709   27.1992 N   0  0  0  0  0  0  0  0  0  0  0  0
    6.4337   13.5617   27.1935 C   0  0  0  0  0  0  0  0  0  0  0  0
    7.5774   13.8259   26.4527 C   0  0  0  0  0  0  0  0  0  0  0  0
  1  2  2  0
  2  3  1  0
  3  4  1  0
  4  5  1  0
  5  6  2  0
  6  7  1  0
  7  8  2  0
  8  9  1  0
  9 10  2  0
 10  5  1  0
M  END
>  <ref_pdb>  (1100) 
A4445b

>  <subsites>  (1100) 
1 - Active Site

>  <HIPPO Compound ID>  (1100) 
4812

>  <energy_score>  (1100) 
-7.876208

>  <fragmenstein_mode>  (1100) 
expansion

>  <scratch_subdir>  (1100) 
/opt/xchem-fragalysis-2/maxwin/BulkDock/SCRATCH/512031/C9549-P364

>  <smiles>  (1100) 
O=CCCc1ccncc1

>  <alias>  (1100) 
C9549-P364

>  <ref_mols>  (1100) 
A4445b,A2629a

>  <inspiration_score>  (1100) 
None

>  <tags>  (1100) 
BulkDock Fragalysis export,fragmenstein_placed,openbind_a71ev2a_c1_knitwork_impure,openbind_a71ev2a_c1_scaffolds

>  <fragmenstein_outcome>  (1100) 
acceptable

>  <fragmenstein_error>  (1100) 


>  <distance_score>  (1100) 
0.938057

>  <inchikey>  (1100) 
VLOGXOWERDMVRP-UHFFFAOYSA-N

>  <name>  (1100) 
C9549-P364

>  <HIPPO Pose ID>  (1100) 
471840

>  <Energy>  (1100) 
19.23059

>  <exports>  (1100) 
['/opt/xchem-fragalysis-2/maxwin/BulkDock/OUTPUTS/openbind_a71ev2a_c1_knitwork_impure_165VXJF.sdf', '/opt/xchem-fragalysis-2/maxwin/BulkDock/OUTPUTS/openbind_a71ev2a_c1_knitwork_impure_1B07QS4.sdf', '/opt/xchem-fragalysis-2/maxwin/BulkDock/OUTPUTS/openbind_a71ev2a_c1_knitwork_impure_1B07X5R.sdf', '/opt/xchem-fragalysis-2/maxwin/openbind-hippo/a71ev2a/openbind_a71ev2a_c1_scaffold_products.sdf', '/opt/xchem-fragalysis-2/maxwin/openbind-hippo/a71ev2a/cycle_01/bulkdock/openbind_a71ev2a_c1_scaffold_products.sdf', '/opt/xchem-fragalysis-2/maxwin/openbind-hippo/a71ev2a/cycle_01/bulkdock/openbind_a71ev2a_c1_scaffolds.sdf']

>  <fragmenstein_runtime>  (1100) 
1.049554

$$$$
C7674-P618
     RDKit          3D

 13 14  0  0  0  0  0  0  0  0999 V2000
    5.7630   15.4915   22.3152 N   0  0  0  0  0  0  0  0  0  0  0  0
    7.2016   14.6674   22.5349 S   0  0  0  0  0  0  0  0  0  0  0  0
    8.2292   15.4815   21.9374 O   0  0  0  0  0  0  0  0  0  0  0  0
    6.9654   13.2977   22.1353 O   0  0  0  0  0  0  0  0  0  0  0  0
    7.3865   14.7170   24.3126 C   0  0  0  0  0  0  0  0  0  0  0  0
    8.8194   14.4470   24.7793 C   0  0  0  0  0  0  0  0  0  0  0  0
    9.5804   13.2721   24.1313 C   0  0  0  0  0  0  0  0  0  0  0  0
    9.3867   11.9202   24.6654 N   0  0  0  0  0  0  0  0  0  0  0  0
    8.0276   11.6365   25.1350 C   0  0  0  0  0  0  0  0  0  0  0  0
    8.0231   10.1200   25.2173 C   0  0  0  0  0  0  0  0  0  0  0  0
    8.7922    9.6827   24.0192 C   0  0  2  0  0  0  0  0  0  0  0  0
   10.2533    9.4944   23.9162 C   0  0  0  0  0  0  0  0  0  0  0  0
    9.6791   10.8528   23.6542 C   0  0  2  0  0  0  0  0  0  0  0  0
  1  2  1  0
  2  3  2  0
  2  4  2  0
  2  5  1  0
  5  6  1  0
  6  7  1  0
  7  8  1  0
  8  9  1  0
  9 10  1  0
 11 10  1  1
 11 12  1  0
 13 12  1  1
 13  8  1  0
 13 11  1  0
M  END
>  <ref_pdb>  (1101) 
A5425b

>  <subsites>  (1101) 
1 - Active Site

>  <HIPPO Compound ID>  (1101) 
2628

>  <energy_score>  (1101) 
-24.901521

>  <fragmenstein_mode>  (1101) 
expansion

>  <scratch_subdir>  (1101) 
/opt/xchem-fragalysis-2/maxwin/BulkDock/SCRATCH/512031/C7674-P618

>  <smiles>  (1101) 
NS(=O)(=O)CCCN1CC[C@@H]2C[C@@H]21

>  <alias>  (1101) 
C7674-P618

>  <ref_mols>  (1101) 
A5425b,A0719a

>  <inspiration_score>  (1101) 
None

>  <tags>  (1101) 
BulkDock Fragalysis export,fragmenstein_placed,openbind_a71ev2a_c1_knitwork_impure,openbind_a71ev2a_c1_scaffolds

>  <fragmenstein_outcome>  (1101) 
acceptable

>  <fragmenstein_error>  (1101) 


>  <distance_score>  (1101) 
0.732902

>  <inchikey>  (1101) 
NILYFVLXUNTUTG-UHFFFAOYSA-N

>  <name>  (1101) 
C7674-P618

>  <HIPPO Pose ID>  (1101) 
472059

>  <Energy>  (1101) 
-61.633162

>  <exports>  (1101) 
['/opt/xchem-fragalysis-2/maxwin/BulkDock/OUTPUTS/openbind_a71ev2a_c1_knitwork_impure_165VXJF.sdf', '/opt/xchem-fragalysis-2/maxwin/BulkDock/OUTPUTS/openbind_a71ev2a_c1_knitwork_impure_1B07QS4.sdf', '/opt/xchem-fragalysis-2/maxwin/BulkDock/OUTPUTS/openbind_a71ev2a_c1_knitwork_impure_1B07X5R.sdf', '/opt/xchem-fragalysis-2/maxwin/openbind-hippo/a71ev2a/openbind_a71ev2a_c1_scaffold_products.sdf', '/opt/xchem-fragalysis-2/maxwin/openbind-hippo/a71ev2a/cycle_01/bulkdock/openbind_a71ev2a_c1_scaffold_products.sdf', '/opt/xchem-fragalysis-2/maxwin/openbind-hippo/a71ev2a/cycle_01/bulkdock/openbind_a71ev2a_c1_scaffolds.sdf']

>  <fragmenstein_runtime>  (1101) 
2.737506

$$$$
C678-P71
     RDKit          3D

 22 25  0  0  0  0  0  0  0  0999 V2000
   31.3726   22.2009   17.5492 O   0  0  0  0  0  0  0  0  0  0  0  0
   30.3503   22.7805   17.1831 C   0  0  0  0  0  0  0  0  0  0  0  0
   29.1435   22.6409   17.8033 O   0  0  0  0  0  0  0  0  0  0  0  0
   29.1170   21.6791   18.8653 C   0  0  0  0  0  0  0  0  0  0  0  0
   27.7060   21.5376   19.4071 C   0  0  0  0  0  0  0  0  0  0  0  0
   27.5284   21.0169   20.6991 C   0  0  0  0  0  0  0  0  0  0  0  0
   26.2513   20.8079   21.2407 C   0  0  0  0  0  0  0  0  0  0  0  0
   25.1277   21.1195   20.4591 C   0  0  0  0  0  0  0  0  0  0  0  0
   23.7256   21.0388   20.6076 C   0  0  0  0  0  0  0  0  0  0  0  0
   23.0614   21.4347   19.5175 N   0  0  0  0  0  0  0  0  0  0  0  0
   24.0513   21.7948   18.6696 N   0  0  0  0  0  0  0  0  0  0  0  0
   25.3129   21.6319   19.1829 C   0  0  0  0  0  0  0  0  0  0  0  0
   26.5787   21.8503   18.6236 C   0  0  0  0  0  0  0  0  0  0  0  0
   30.2640   23.7568   15.9733 C   0  0  0  0  0  0  0  0  0  0  0  0
   29.6663   23.0824   14.7928 N   0  0  0  0  0  0  0  0  0  0  0  0
   30.2164   21.9827   14.1910 C   0  0  0  0  0  0  0  0  0  0  0  0
   29.3592   21.6326   13.1753 C   0  0  0  0  0  0  0  0  0  0  0  0
   28.3273   22.5839   13.2379 C   0  0  0  0  0  0  0  0  0  0  0  0
   28.5090   23.4709   14.2191 N   0  0  0  0  0  0  0  0  0  0  0  0
   29.6723   25.1819   16.2440 C   0  0  0  0  0  0  0  0  0  0  0  0
   31.1164   25.6667   16.4740 C   0  0  0  0  0  0  0  0  0  0  0  0
   31.5776   24.5083   15.5702 C   0  0  0  0  0  0  0  0  0  0  0  0
  1  2  2  0
  2  3  1  0
  3  4  1  0
  4  5  1  0
  5  6  2  0
  6  7  1  0
  7  8  2  0
  8  9  1  0
  9 10  2  0
 10 11  1  0
 11 12  1  0
 12 13  2  0
  2 14  1  0
 14 15  1  0
 15 16  1  0
 16 17  2  0
 17 18  1  0
 18 19  2  0
 14 20  1  0
 20 21  1  0
 21 22  1  0
 13  5  1  0
 22 14  1  0
 12  8  1  0
 19 15  1  0
M  END
>  <ref_pdb>  (1102) 
A0428a

>  <subsites>  (1102) 
3 - A0541/A/147/1,5 - A3181/A/202/1

>  <HIPPO Compound ID>  (1102) 
4095

>  <energy_score>  (1102) 
-37.3287

>  <fragmenstein_mode>  (1102) 
expansion

>  <scratch_subdir>  (1102) 
/opt/xchem-fragalysis-2/maxwin/BulkDock/SCRATCH/512031/C678-P71

>  <smiles>  (1102) 
O=C(OCc1ccc2cn[nH]c2c1)C1(n2cccn2)CCC1

>  <alias>  (1102) 
C678-P71

>  <ref_mols>  (1102) 
A3181b,A0428a

>  <inspiration_score>  (1102) 
None

>  <tags>  (1102) 
BulkDock Fragalysis export,fragmenstein_placed,openbind_a71ev2a_c1_knitwork_impure,openbind_a71ev2a_c1_scaffolds

>  <fragmenstein_outcome>  (1102) 
acceptable

>  <fragmenstein_error>  (1102) 


>  <distance_score>  (1102) 
0.382584

>  <inchikey>  (1102) 
MFZCMMKAORBXOZ-UHFFFAOYSA-N

>  <name>  (1102) 
C678-P71

>  <HIPPO Pose ID>  (1102) 
472156

>  <Energy>  (1102) 
30.268183

>  <exports>  (1102) 
['/opt/xchem-fragalysis-2/maxwin/BulkDock/OUTPUTS/openbind_a71ev2a_c1_knitwork_impure_165VXJF.sdf', '/opt/xchem-fragalysis-2/maxwin/BulkDock/OUTPUTS/openbind_a71ev2a_c1_knitwork_impure_1B07QS4.sdf', '/opt/xchem-fragalysis-2/maxwin/BulkDock/OUTPUTS/openbind_a71ev2a_c1_knitwork_impure_1B07X5R.sdf', '/opt/xchem-fragalysis-2/maxwin/openbind-hippo/a71ev2a/openbind_a71ev2a_c1_scaffold_products.sdf', '/opt/xchem-fragalysis-2/maxwin/openbind-hippo/a71ev2a/cycle_01/bulkdock/openbind_a71ev2a_c1_scaffold_products.sdf', '/opt/xchem-fragalysis-2/maxwin/openbind-hippo/a71ev2a/cycle_01/bulkdock/openbind_a71ev2a_c1_scaffolds.sdf']

>  <fragmenstein_runtime>  (1102) 
7.091317

$$$$
C2399-P384
     RDKit          3D

 15 15  0  0  0  0  0  0  0  0999 V2000
    7.7282   14.1895   22.2064 C   0  0  0  0  0  0  0  0  0  0  0  0
    8.7023   14.3168   23.1327 C   0  0  0  0  0  0  0  0  0  0  0  0
    9.8378   15.2778   22.9462 C   0  0  0  0  0  0  0  0  0  0  0  0
   11.0520   14.7306   23.1829 F   0  0  0  0  0  0  0  0  0  0  0  0
    9.8740   15.7748   21.6816 F   0  0  0  0  0  0  0  0  0  0  0  0
    9.7190   16.3423   23.7811 F   0  0  0  0  0  0  0  0  0  0  0  0
    8.6869   13.5911   24.4654 C   0  0  2  0  0  0  0  0  0  0  0  0
    7.7034   14.3127   25.3955 C   0  0  0  0  0  0  0  0  0  0  0  0
    9.9152   13.6749   25.0773 F   0  0  0  0  0  0  0  0  0  0  0  0
    8.3928   12.0682   24.2969 C   0  0  1  0  0  0  0  0  0  0  0  0
    9.6118   11.3579   23.6684 C   0  0  0  0  0  0  0  0  0  0  0  0
    9.8283    9.9281   24.1538 C   0  0  0  0  0  0  0  0  0  0  0  0
    8.5284    9.2349   24.4816 C   0  0  0  0  0  0  0  0  0  0  0  0
    7.6803    9.9620   25.4216 N   0  0  0  0  0  0  0  0  0  0  0  0
    8.0138   11.3709   25.5944 C   0  0  0  0  0  0  0  0  0  0  0  0
  1  2  2  0
  2  3  1  0
  3  4  1  0
  3  5  1  0
  3  6  1  0
  2  7  1  0
  7  8  1  1
  7  9  1  0
  7 10  1  0
 10 11  1  1
 11 12  1  0
 12 13  1  0
 13 14  1  0
 14 15  1  0
 15 10  1  0
M  END
>  <ref_pdb>  (1103) 
A4509a

>  <subsites>  (1103) 
1 - Active Site

>  <HIPPO Compound ID>  (1103) 
1613

>  <energy_score>  (1103) 
-30.201167

>  <fragmenstein_mode>  (1103) 
expansion

>  <scratch_subdir>  (1103) 
/opt/xchem-fragalysis-2/maxwin/BulkDock/SCRATCH/512031/C2399-P384

>  <smiles>  (1103) 
C=C(C(F)(F)F)[C@](C)(F)[C@H]1CCCNC1

>  <alias>  (1103) 
C2399-P384

>  <ref_mols>  (1103) 
A4509a,A0875a

>  <inspiration_score>  (1103) 
None

>  <tags>  (1103) 
BulkDock Fragalysis export,fragmenstein_placed,openbind_a71ev2a_c1_knitwork_impure,openbind_a71ev2a_c1_scaffolds

>  <fragmenstein_outcome>  (1103) 
acceptable

>  <fragmenstein_error>  (1103) 


>  <distance_score>  (1103) 
0.810254

>  <inchikey>  (1103) 
LQRJFVLGKSJEGN-UHFFFAOYSA-N

>  <name>  (1103) 
C2399-P384

>  <HIPPO Pose ID>  (1103) 
472182

>  <Energy>  (1103) 
21.305484

>  <exports>  (1103) 
['/opt/xchem-fragalysis-2/maxwin/BulkDock/OUTPUTS/openbind_a71ev2a_c1_knitwork_impure_165VXJF.sdf', '/opt/xchem-fragalysis-2/maxwin/BulkDock/OUTPUTS/openbind_a71ev2a_c1_knitwork_impure_1B07QS4.sdf', '/opt/xchem-fragalysis-2/maxwin/BulkDock/OUTPUTS/openbind_a71ev2a_c1_knitwork_impure_1B07X5R.sdf', '/opt/xchem-fragalysis-2/maxwin/openbind-hippo/a71ev2a/openbind_a71ev2a_c1_scaffold_products.sdf', '/opt/xchem-fragalysis-2/maxwin/openbind-hippo/a71ev2a/cycle_01/bulkdock/openbind_a71ev2a_c1_scaffold_products.sdf', '/opt/xchem-fragalysis-2/maxwin/openbind-hippo/a71ev2a/cycle_01/bulkdock/openbind_a71ev2a_c1_scaffolds.sdf']

>  <fragmenstein_runtime>  (1103) 
2.47317

$$$$
C1627-P176
     RDKit          3D

 16 16  0  0  0  0  0  0  0  0999 V2000
    5.6208   11.8670   26.4726 C   0  0  0  0  0  0  0  0  0  0  0  0
    6.6857   12.0917   25.4564 C   0  0  0  0  0  0  0  0  0  0  0  0
    7.7605   11.3046   25.3313 C   0  0  0  0  0  0  0  0  0  0  0  0
    8.9482   11.5556   24.4577 C   0  0  0  0  0  0  0  0  0  0  0  0
    9.3987   13.0067   24.2281 C   0  0  1  0  0  0  0  0  0  0  0  0
    9.6910   13.9104   25.4313 C   0  0  0  0  0  0  0  0  0  0  0  0
    8.4971   14.5270   26.1325 C   0  0  0  0  0  0  0  0  0  0  0  0
   10.7602   12.9657   23.5277 C   0  0  0  0  0  0  0  0  0  0  0  0
   11.6436   12.2914   23.8655 O   0  0  0  0  0  0  0  0  0  0  0  0
   10.6884   14.0323   22.4326 N   0  0  0  0  0  0  0  0  0  0  0  0
   11.6547   14.4303   21.4601 C   0  0  0  0  0  0  0  0  0  0  0  0
   10.8411   15.2375   20.5340 C   0  0  0  0  0  0  0  0  0  0  0  0
   10.6907   15.1779   19.1736 C   0  0  0  0  0  0  0  0  0  0  0  0
    9.7289   16.0781   18.8276 O   0  0  0  0  0  0  0  0  0  0  0  0
    9.3714   16.6693   19.9980 C   0  0  0  0  0  0  0  0  0  0  0  0
    9.9683   16.1824   21.0538 N   0  0  0  0  0  0  0  0  0  0  0  0
  1  2  1  0
  2  3  2  3
  3  4  1  0
  5  4  1  1
  5  6  1  0
  6  7  1  0
  5  8  1  0
  8  9  2  0
  8 10  1  0
 10 11  1  0
 11 12  1  0
 12 13  2  0
 13 14  1  0
 14 15  1  0
 15 16  2  0
 16 12  1  0
M  END
>  <ref_pdb>  (1104) 
A3392a

>  <subsites>  (1104) 
1 - Active Site

>  <HIPPO Compound ID>  (1104) 
35844

>  <energy_score>  (1104) 
-13.265361

>  <fragmenstein_mode>  (1104) 
expansion

>  <scratch_subdir>  (1104) 
/opt/xchem-fragalysis-2/maxwin/BulkDock/SCRATCH/512031/C1627-P176

>  <smiles>  (1104) 
CC=CC[C@@H](CC)C(=O)NCc1cocn1

>  <alias>  (1104) 
C1627-P176

>  <ref_mols>  (1104) 
A3392a,A1778a

>  <inspiration_score>  (1104) 
None

>  <tags>  (1104) 
BulkDock Fragalysis export,fragmenstein_placed,openbind_a71ev2a_c1_knitwork_impure,openbind_a71ev2a_c1_scaffolds

>  <fragmenstein_outcome>  (1104) 
acceptable

>  <fragmenstein_error>  (1104) 


>  <distance_score>  (1104) 
0.91069

>  <inchikey>  (1104) 
AWDDJZCLAJFCAI-UHFFFAOYSA-N

>  <name>  (1104) 
C1627-P176

>  <HIPPO Pose ID>  (1104) 
472411

>  <Energy>  (1104) 
24.25533

>  <exports>  (1104) 
['/opt/xchem-fragalysis-2/maxwin/BulkDock/OUTPUTS/openbind_a71ev2a_c1_knitwork_impure_165VXJF.sdf', '/opt/xchem-fragalysis-2/maxwin/BulkDock/OUTPUTS/openbind_a71ev2a_c1_knitwork_impure_1B07QS4.sdf', '/opt/xchem-fragalysis-2/maxwin/BulkDock/OUTPUTS/openbind_a71ev2a_c1_knitwork_impure_1B07X5R.sdf', '/opt/xchem-fragalysis-2/maxwin/openbind-hippo/a71ev2a/openbind_a71ev2a_c1_scaffold_products.sdf', '/opt/xchem-fragalysis-2/maxwin/openbind-hippo/a71ev2a/cycle_01/bulkdock/openbind_a71ev2a_c1_scaffold_products.sdf', '/opt/xchem-fragalysis-2/maxwin/openbind-hippo/a71ev2a/cycle_01/bulkdock/openbind_a71ev2a_c1_scaffolds.sdf']

>  <fragmenstein_runtime>  (1104) 
3.695282

$$$$
C7182-P336
     RDKit          3D

 22 23  0  0  0  0  0  0  0  0999 V2000
    9.4039   10.1852   23.4264 C   0  0  0  0  0  0  0  0  0  0  0  0
    8.4770   10.8287   24.3833 C   0  0  0  0  0  0  0  0  0  0  0  0
    7.5319   10.2395   25.1732 C   0  0  0  0  0  0  0  0  0  0  0  0
    6.9081   11.2527   25.9051 C   0  0  0  0  0  0  0  0  0  0  0  0
    5.8703   10.9944   26.7463 N   0  0  0  0  0  0  0  0  0  0  0  0
    5.2824   11.8385   27.9145 C   0  0  0  0  0  0  0  0  0  0  0  0
    5.6485   12.8454   28.3792 O   0  0  0  0  0  0  0  0  0  0  0  0
    3.9842   11.1249   28.3186 C   0  0  0  0  0  0  0  0  0  0  0  0
    3.4241   11.3526   29.7273 C   0  0  1  0  0  0  0  0  0  0  0  0
    3.2873   12.8268   30.0974 C   0  0  0  0  0  0  0  0  0  0  0  0
    2.0488   10.6918   29.8232 C   0  0  0  0  0  0  0  0  0  0  0  0
    1.5573   10.7547   31.0785 F   0  0  0  0  0  0  0  0  0  0  0  0
    2.1020    9.3852   29.4769 F   0  0  0  0  0  0  0  0  0  0  0  0
    1.1577   11.2791   28.9951 F   0  0  0  0  0  0  0  0  0  0  0  0
    7.4572   12.4336   25.6339 N   0  0  0  0  0  0  0  0  0  0  0  0
    8.3510   12.1647   24.6494 N   0  0  0  0  0  0  0  0  0  0  0  0
    8.9872   13.2355   23.9093 C   0  0  0  0  0  0  0  0  0  0  0  0
    9.6394   14.3097   24.7784 C   0  0  0  0  0  0  0  0  0  0  0  0
   10.3955   15.2859   23.8756 C   0  0  0  0  0  0  0  0  0  0  0  0
    9.4899   15.8555   22.7839 C   0  0  0  0  0  0  0  0  0  0  0  0
    8.7770   14.7902   21.9722 C   0  0  0  0  0  0  0  0  0  0  0  0
    8.0186   13.8500   22.8961 C   0  0  0  0  0  0  0  0  0  0  0  0
  1  2  1  0
  2  3  2  0
  3  4  1  0
  4  5  1  0
  5  6  1  0
  6  7  2  0
  6  8  1  0
  8  9  1  0
  9 10  1  6
  9 11  1  0
 11 12  1  0
 11 13  1  0
 11 14  1  0
  4 15  2  0
 15 16  1  0
 16 17  1  0
 17 18  1  0
 18 19  1  0
 19 20  1  0
 20 21  1  0
 21 22  1  0
 16  2  1  0
 22 17  1  0
M  END
>  <ref_pdb>  (1105) 
A4214a

>  <subsites>  (1105) 
1 - Active Site

>  <HIPPO Compound ID>  (1105) 
2388

>  <energy_score>  (1105) 
-7.002798

>  <fragmenstein_mode>  (1105) 
expansion

>  <scratch_subdir>  (1105) 
/opt/xchem-fragalysis-2/maxwin/BulkDock/SCRATCH/512222/C7182-P336

>  <smiles>  (1105) 
Cc1cc(NC(=O)C[C@@H](C)C(F)(F)F)nn1C1CCCCC1

>  <alias>  (1105) 
C7182-P336

>  <ref_mols>  (1105) 
A1445a,A4214a

>  <inspiration_score>  (1105) 
None

>  <tags>  (1105) 
BulkDock Fragalysis export,fragmenstein_placed,openbind_a71ev2a_c1_knitwork_impure,openbind_a71ev2a_c1_scaffolds

>  <fragmenstein_outcome>  (1105) 
acceptable

>  <fragmenstein_error>  (1105) 


>  <distance_score>  (1105) 
0.913904

>  <inchikey>  (1105) 
WCQICRGOXXDKIA-UHFFFAOYSA-N

>  <name>  (1105) 
C7182-P336

>  <HIPPO Pose ID>  (1105) 
472641

>  <Energy>  (1105) 
-10.363605

>  <exports>  (1105) 
['/opt/xchem-fragalysis-2/maxwin/BulkDock/OUTPUTS/openbind_a71ev2a_c1_knitwork_impure_165VXJF.sdf', '/opt/xchem-fragalysis-2/maxwin/BulkDock/OUTPUTS/openbind_a71ev2a_c1_knitwork_impure_1B07QS4.sdf', '/opt/xchem-fragalysis-2/maxwin/BulkDock/OUTPUTS/openbind_a71ev2a_c1_knitwork_impure_1B07X5R.sdf', '/opt/xchem-fragalysis-2/maxwin/openbind-hippo/a71ev2a/openbind_a71ev2a_c1_scaffold_products.sdf', '/opt/xchem-fragalysis-2/maxwin/openbind-hippo/a71ev2a/cycle_01/bulkdock/openbind_a71ev2a_c1_scaffold_products.sdf', '/opt/xchem-fragalysis-2/maxwin/openbind-hippo/a71ev2a/cycle_01/bulkdock/openbind_a71ev2a_c1_scaffolds.sdf']

>  <fragmenstein_runtime>  (1105) 
14.338551

$$$$
C13001-P22
     RDKit          3D

 12 12  0  0  0  0  0  0  0  0999 V2000
    7.5030   11.3751   25.3169 C   0  0  0  0  0  0  0  0  0  0  0  0
    7.9539   12.5896   24.9732 C   0  0  0  0  0  0  0  0  0  0  0  0
    7.0154   13.9770   25.3718 Cl  0  0  0  0  0  0  0  0  0  0  0  0
    9.3092   12.7024   24.2996 C   0  0  0  0  0  0  0  0  0  0  0  0
    9.8981   11.7345   24.0237 O   0  0  0  0  0  0  0  0  0  0  0  0
    9.7154   14.1846   24.1880 N   0  0  0  0  0  0  0  0  0  0  0  0
   10.8980   14.7940   23.6238 C   0  0  1  0  0  0  0  0  0  0  0  0
   12.0038   13.8330   23.1821 C   0  0  0  0  0  0  0  0  0  0  0  0
   12.8481   14.6852   22.2516 C   0  0  0  0  0  0  0  0  0  0  0  0
   11.9089   15.5905   21.6594 N   0  0  0  0  0  0  0  0  0  0  0  0
   10.7063   15.6101   22.3432 C   0  0  0  0  0  0  0  0  0  0  0  0
    9.7246   16.2433   21.9962 O   0  0  0  0  0  0  0  0  0  0  0  0
  1  2  2  0
  2  3  1  0
  2  4  1  0
  4  5  2  0
  4  6  1  0
  7  6  1  6
  7  8  1  0
  8  9  1  0
  9 10  1  0
 10 11  1  0
 11 12  2  0
 11  7  1  0
M  END
>  <ref_pdb>  (1106) 
A0528a

>  <subsites>  (1106) 
1 - Active Site

>  <HIPPO Compound ID>  (1106) 
9590

>  <energy_score>  (1106) 
-2.778902

>  <fragmenstein_mode>  (1106) 
expansion

>  <scratch_subdir>  (1106) 
/opt/xchem-fragalysis-2/maxwin/BulkDock/SCRATCH/512222/C13001-P22

>  <smiles>  (1106) 
C=C(Cl)C(=O)N[C@H]1CCNC1=O

>  <alias>  (1106) 
C13001-P22

>  <ref_mols>  (1106) 
A1445a,A0528a

>  <inspiration_score>  (1106) 
None

>  <tags>  (1106) 
BulkDock Fragalysis export,fragmenstein_placed,openbind_a71ev2a_c1_knitwork_impure,openbind_a71ev2a_c1_scaffolds

>  <fragmenstein_outcome>  (1106) 
acceptable

>  <fragmenstein_error>  (1106) 


>  <distance_score>  (1106) 
0.771287

>  <inchikey>  (1106) 
NSDGADWCIGGTNK-UHFFFAOYSA-N

>  <name>  (1106) 
C13001-P22

>  <HIPPO Pose ID>  (1106) 
472904

>  <Energy>  (1106) 
23.418188

>  <exports>  (1106) 
['/opt/xchem-fragalysis-2/maxwin/BulkDock/OUTPUTS/openbind_a71ev2a_c1_knitwork_impure_165VXJF.sdf', '/opt/xchem-fragalysis-2/maxwin/BulkDock/OUTPUTS/openbind_a71ev2a_c1_knitwork_impure_1B07QS4.sdf', '/opt/xchem-fragalysis-2/maxwin/BulkDock/OUTPUTS/openbind_a71ev2a_c1_knitwork_impure_1B07X5R.sdf', '/opt/xchem-fragalysis-2/maxwin/openbind-hippo/a71ev2a/openbind_a71ev2a_c1_scaffold_products.sdf', '/opt/xchem-fragalysis-2/maxwin/openbind-hippo/a71ev2a/cycle_01/bulkdock/openbind_a71ev2a_c1_scaffold_products.sdf', '/opt/xchem-fragalysis-2/maxwin/openbind-hippo/a71ev2a/cycle_01/bulkdock/openbind_a71ev2a_c1_scaffolds.sdf']

>  <fragmenstein_runtime>  (1106) 
1.337368

$$$$
C8052-P2
     RDKit          3D

 19 19  0  0  0  0  0  0  0  0999 V2000
   11.8904   15.5581   21.1150 C   0  0  0  0  0  0  0  0  0  0  0  0
   10.4187   15.6533   20.6811 C   0  0  0  0  0  0  0  0  0  0  0  0
   10.3920   15.3041   19.1829 C   0  0  0  0  0  0  0  0  0  0  0  0
    9.8480   17.0687   20.8049 C   0  0  0  0  0  0  0  0  0  0  0  0
    9.5502   14.6720   21.5091 C   0  0  0  0  0  0  0  0  0  0  0  0
    9.2550   15.0064   22.9861 C   0  0  1  0  0  0  0  0  0  0  0  0
    8.4750   13.9384   23.5944 N   0  0  0  0  0  0  0  0  0  0  0  0
    7.4562   13.9771   24.7396 C   0  0  0  0  0  0  0  0  0  0  0  0
    7.0190   14.8790   25.3298 O   0  0  0  0  0  0  0  0  0  0  0  0
    7.1197   12.5699   25.1285 C   0  0  0  0  0  0  0  0  0  0  0  0
    6.1785   12.3343   26.1189 C   0  0  0  0  0  0  0  0  0  0  0  0
    5.9276   11.0171   26.4641 C   0  0  0  0  0  0  0  0  0  0  0  0
    6.6208   10.0043   25.8094 C   0  0  0  0  0  0  0  0  0  0  0  0
    7.5740   10.3297   24.8584 C   0  0  0  0  0  0  0  0  0  0  0  0
    7.8419   11.5962   24.4961 N   0  0  0  0  0  0  0  0  0  0  0  0
   10.4682   15.3182   23.8763 C   0  0  0  0  0  0  0  0  0  0  0  0
   11.4793   14.4391   23.7052 F   0  0  0  0  0  0  0  0  0  0  0  0
   10.9468   16.5552   23.6554 F   0  0  0  0  0  0  0  0  0  0  0  0
   10.1506   15.2876   25.1980 F   0  0  0  0  0  0  0  0  0  0  0  0
  1  2  1  0
  2  3  1  0
  2  4  1  0
  2  5  1  0
  6  5  1  6
  6  7  1  0
  7  8  1  0
  8  9  2  0
  8 10  1  0
 10 11  2  0
 11 12  1  0
 12 13  2  0
 13 14  1  0
 14 15  2  0
  6 16  1  0
 16 17  1  0
 16 18  1  0
 16 19  1  0
 15 10  1  0
M  END
>  <ref_pdb>  (1107) 
A4298a

>  <subsites>  (1107) 
1 - Active Site,6 - A0486/A/147/1

>  <HIPPO Compound ID>  (1107) 
10829

>  <energy_score>  (1107) 
-13.110209

>  <fragmenstein_mode>  (1107) 
expansion

>  <scratch_subdir>  (1107) 
/opt/xchem-fragalysis-2/maxwin/BulkDock/SCRATCH/512222/C8052-P2

>  <smiles>  (1107) 
CC(C)(C)C[C@@H](NC(=O)c1ccccn1)C(F)(F)F

>  <alias>  (1107) 
C8052-P2

>  <ref_mols>  (1107) 
A4298a,A0239a,A1778a

>  <inspiration_score>  (1107) 
None

>  <tags>  (1107) 
BulkDock Fragalysis export,fragmenstein_placed,openbind_a71ev2a_c1_knitwork_impure,openbind_a71ev2a_c1_scaffolds

>  <fragmenstein_outcome>  (1107) 
acceptable

>  <fragmenstein_error>  (1107) 


>  <distance_score>  (1107) 
0.996092

>  <inchikey>  (1107) 
YVLAVJGZJRKIEO-UHFFFAOYSA-N

>  <name>  (1107) 
C8052-P2

>  <HIPPO Pose ID>  (1107) 
472971

>  <Energy>  (1107) 
123.990574

>  <exports>  (1107) 
['/opt/xchem-fragalysis-2/maxwin/BulkDock/OUTPUTS/openbind_a71ev2a_c1_knitwork_impure_165VXJF.sdf', '/opt/xchem-fragalysis-2/maxwin/BulkDock/OUTPUTS/openbind_a71ev2a_c1_knitwork_impure_1B07QS4.sdf', '/opt/xchem-fragalysis-2/maxwin/BulkDock/OUTPUTS/openbind_a71ev2a_c1_knitwork_impure_1B07X5R.sdf', '/opt/xchem-fragalysis-2/maxwin/openbind-hippo/a71ev2a/openbind_a71ev2a_c1_scaffold_products.sdf', '/opt/xchem-fragalysis-2/maxwin/openbind-hippo/a71ev2a/cycle_01/bulkdock/openbind_a71ev2a_c1_scaffold_products.sdf', '/opt/xchem-fragalysis-2/maxwin/openbind-hippo/a71ev2a/cycle_01/bulkdock/openbind_a71ev2a_c1_scaffolds.sdf']

>  <fragmenstein_runtime>  (1107) 
23.287529

$$$$
C4719-P339
     RDKit          3D

 10 10  0  0  0  0  0  0  0  0999 V2000
    7.4569   11.5658   25.8530 O   0  0  0  0  0  0  0  0  0  0  0  0
    7.4862   12.7136   25.4106 C   0  0  0  0  0  0  0  0  0  0  0  0
    8.7403   13.3131   24.8470 C   0  0  0  0  0  0  0  0  0  0  0  0
    8.4339   14.1736   23.6221 C   0  0  0  0  0  0  0  0  0  0  0  0
    9.6352   14.4680   22.8362 N   0  0  0  0  0  0  0  0  0  0  0  0
   10.6882   15.1427   23.6081 C   0  0  0  0  0  0  0  0  0  0  0  0
   11.8749   15.5042   22.7697 C   0  0  0  0  0  0  0  0  0  0  0  0
   11.8157   15.6190   21.4363 C   0  0  0  0  0  0  0  0  0  0  0  0
   10.5292   15.4057   20.6951 C   0  0  0  0  0  0  0  0  0  0  0  0
    9.3126   15.2602   21.6307 C   0  0  0  0  0  0  0  0  0  0  0  0
  1  2  2  0
  2  3  1  0
  3  4  1  0
  4  5  1  0
  5  6  1  0
  6  7  1  0
  7  8  2  0
  8  9  1  0
  9 10  1  0
 10  5  1  0
M  END
>  <ref_pdb>  (1108) 
A4237b

>  <subsites>  (1108) 
1 - Active Site

>  <HIPPO Compound ID>  (1108) 
8445

>  <energy_score>  (1108) 
-22.25969

>  <fragmenstein_mode>  (1108) 
expansion

>  <scratch_subdir>  (1108) 
/opt/xchem-fragalysis-2/maxwin/BulkDock/SCRATCH/512222/C4719-P339

>  <smiles>  (1108) 
O=CCCN1CC=CCC1

>  <alias>  (1108) 
C4719-P339

>  <ref_mols>  (1108) 
A1775a,A4237b

>  <inspiration_score>  (1108) 
None

>  <tags>  (1108) 
BulkDock Fragalysis export,fragmenstein_placed,openbind_a71ev2a_c1_knitwork_impure,openbind_a71ev2a_c1_scaffolds

>  <fragmenstein_outcome>  (1108) 
acceptable

>  <fragmenstein_error>  (1108) 


>  <distance_score>  (1108) 
0.674664

>  <inchikey>  (1108) 
NQGNDAMYFAXCMF-UHFFFAOYSA-N

>  <name>  (1108) 
C4719-P339

>  <HIPPO Pose ID>  (1108) 
473057

>  <Energy>  (1108) 
17.403606

>  <exports>  (1108) 
['/opt/xchem-fragalysis-2/maxwin/BulkDock/OUTPUTS/openbind_a71ev2a_c1_knitwork_impure_165VXJF.sdf', '/opt/xchem-fragalysis-2/maxwin/BulkDock/OUTPUTS/openbind_a71ev2a_c1_knitwork_impure_1B07QS4.sdf', '/opt/xchem-fragalysis-2/maxwin/BulkDock/OUTPUTS/openbind_a71ev2a_c1_knitwork_impure_1B07X5R.sdf', '/opt/xchem-fragalysis-2/maxwin/openbind-hippo/a71ev2a/openbind_a71ev2a_c1_scaffold_products.sdf', '/opt/xchem-fragalysis-2/maxwin/openbind-hippo/a71ev2a/cycle_01/bulkdock/openbind_a71ev2a_c1_scaffold_products.sdf', '/opt/xchem-fragalysis-2/maxwin/openbind-hippo/a71ev2a/cycle_01/bulkdock/openbind_a71ev2a_c1_scaffolds.sdf']

>  <fragmenstein_runtime>  (1108) 
1.262937

$$$$
C4725-P339
     RDKit          3D

 10 10  0  0  0  0  0  0  0  0999 V2000
    7.7658   11.1819   25.7681 O   0  0  0  0  0  0  0  0  0  0  0  0
    6.9136   12.0657   25.7644 C   0  0  0  0  0  0  0  0  0  0  0  0
    5.7106   12.0939   26.6768 C   0  0  0  0  0  0  0  0  0  0  0  0
    5.4598   10.7276   27.3170 C   0  0  0  0  0  0  0  0  0  0  0  0
    4.1832   10.6058   28.0621 N   0  0  0  0  0  0  0  0  0  0  0  0
    4.0470    9.1955   28.5120 C   0  0  0  0  0  0  0  0  0  0  0  0
    2.7095    8.8786   29.1891 C   0  0  0  0  0  0  0  0  0  0  0  0
    2.4670    9.8473   30.7052 S   0  0  0  0  0  0  0  0  0  0  0  0
    2.8061   11.4826   29.9899 C   0  0  0  0  0  0  0  0  0  0  0  0
    4.1353   11.5218   29.2221 C   0  0  0  0  0  0  0  0  0  0  0  0
  1  2  2  0
  2  3  1  0
  3  4  1  0
  4  5  1  0
  5  6  1  0
  6  7  1  0
  7  8  1  0
  8  9  1  0
  9 10  1  0
 10  5  1  0
M  END
>  <ref_pdb>  (1109) 
A4237b

>  <subsites>  (1109) 
1 - Active Site

>  <HIPPO Compound ID>  (1109) 
6095

>  <energy_score>  (1109) 
-35.504302

>  <fragmenstein_mode>  (1109) 
expansion

>  <scratch_subdir>  (1109) 
/opt/xchem-fragalysis-2/maxwin/BulkDock/SCRATCH/512222/C4725-P339

>  <smiles>  (1109) 
O=CCCN1CCSCC1

>  <alias>  (1109) 
C4725-P339

>  <ref_mols>  (1109) 
A1775a,A4237b

>  <inspiration_score>  (1109) 
None

>  <tags>  (1109) 
BulkDock Fragalysis export,fragmenstein_placed,openbind_a71ev2a_c1_knitwork_impure,openbind_a71ev2a_c1_scaffolds

>  <fragmenstein_outcome>  (1109) 
acceptable

>  <fragmenstein_error>  (1109) 


>  <distance_score>  (1109) 
0.765029

>  <inchikey>  (1109) 
CJKOILGHLOVXNN-UHFFFAOYSA-N

>  <name>  (1109) 
C4725-P339

>  <HIPPO Pose ID>  (1109) 
473058

>  <Energy>  (1109) 
45.294082

>  <exports>  (1109) 
['/opt/xchem-fragalysis-2/maxwin/BulkDock/OUTPUTS/openbind_a71ev2a_c1_knitwork_impure_165VXJF.sdf', '/opt/xchem-fragalysis-2/maxwin/BulkDock/OUTPUTS/openbind_a71ev2a_c1_knitwork_impure_1B07QS4.sdf', '/opt/xchem-fragalysis-2/maxwin/BulkDock/OUTPUTS/openbind_a71ev2a_c1_knitwork_impure_1B07X5R.sdf', '/opt/xchem-fragalysis-2/maxwin/openbind-hippo/a71ev2a/openbind_a71ev2a_c1_scaffold_products.sdf', '/opt/xchem-fragalysis-2/maxwin/openbind-hippo/a71ev2a/cycle_01/bulkdock/openbind_a71ev2a_c1_scaffold_products.sdf', '/opt/xchem-fragalysis-2/maxwin/openbind-hippo/a71ev2a/cycle_01/bulkdock/openbind_a71ev2a_c1_scaffolds.sdf']

>  <fragmenstein_runtime>  (1109) 
1.257269

$$$$
C4754-P423
     RDKit          3D

 11 12  0  0  0  0  0  0  0  0999 V2000
    7.1097   10.8144   25.2109 C   0  0  0  0  0  0  0  0  0  0  0  0
    7.5270    9.5962   24.8586 N   0  0  0  0  0  0  0  0  0  0  0  0
    8.5644    9.8465   24.0396 N   0  0  0  0  0  0  0  0  0  0  0  0
    8.8353   11.1785   23.9033 C   0  0  0  0  0  0  0  0  0  0  0  0
    7.8865   11.8464   24.6394 C   0  0  0  0  0  0  0  0  0  0  0  0
    7.7389   13.1985   24.7785 N   0  0  0  0  0  0  0  0  0  0  0  0
    6.3589   13.7258   24.9412 C   0  0  0  0  0  0  0  0  0  0  0  0
    6.3647   15.1979   25.4085 C   0  0  0  0  0  0  0  0  0  0  0  0
    7.1523   16.0829   24.5377 N   0  0  0  0  0  0  0  0  0  0  0  0
    8.5220   15.5552   24.4358 C   0  0  0  0  0  0  0  0  0  0  0  0
    8.5854   14.0905   23.9492 C   0  0  0  0  0  0  0  0  0  0  0  0
  1  2  2  0
  2  3  1  0
  3  4  1  0
  4  5  2  0
  5  6  1  0
  6  7  1  0
  7  8  1  0
  8  9  1  0
  9 10  1  0
 10 11  1  0
  5  1  1  0
 11  6  1  0
M  END
>  <ref_pdb>  (1110) 
A4650a

>  <subsites>  (1110) 
1 - Active Site,3 - A0541/A/147/1

>  <HIPPO Compound ID>  (1110) 
8457

>  <energy_score>  (1110) 
-28.759616

>  <fragmenstein_mode>  (1110) 
expansion

>  <scratch_subdir>  (1110) 
/opt/xchem-fragalysis-2/maxwin/BulkDock/SCRATCH/512222/C4754-P423

>  <smiles>  (1110) 
c1n[nH]cc1N1CCNCC1

>  <alias>  (1110) 
C4754-P423

>  <ref_mols>  (1110) 
A0556a,A0717a,A4650a

>  <inspiration_score>  (1110) 
None

>  <tags>  (1110) 
BulkDock Fragalysis export,fragmenstein_placed,openbind_a71ev2a_c1_knitwork_impure,openbind_a71ev2a_c1_scaffolds

>  <fragmenstein_outcome>  (1110) 
acceptable

>  <fragmenstein_error>  (1110) 


>  <distance_score>  (1110) 
0.827448

>  <inchikey>  (1110) 
AEIDFRMVQVHORR-UHFFFAOYSA-N

>  <name>  (1110) 
C4754-P423

>  <HIPPO Pose ID>  (1110) 
473307

>  <Energy>  (1110) 
79.771165

>  <exports>  (1110) 
['/opt/xchem-fragalysis-2/maxwin/BulkDock/OUTPUTS/openbind_a71ev2a_c1_knitwork_impure_165VXJF.sdf', '/opt/xchem-fragalysis-2/maxwin/BulkDock/OUTPUTS/openbind_a71ev2a_c1_knitwork_impure_1B07QS4.sdf', '/opt/xchem-fragalysis-2/maxwin/BulkDock/OUTPUTS/openbind_a71ev2a_c1_knitwork_impure_1B07X5R.sdf', '/opt/xchem-fragalysis-2/maxwin/openbind-hippo/a71ev2a/openbind_a71ev2a_c1_scaffold_products.sdf', '/opt/xchem-fragalysis-2/maxwin/openbind-hippo/a71ev2a/cycle_01/bulkdock/openbind_a71ev2a_c1_scaffold_products.sdf', '/opt/xchem-fragalysis-2/maxwin/openbind-hippo/a71ev2a/cycle_01/bulkdock/openbind_a71ev2a_c1_scaffolds.sdf']

>  <fragmenstein_runtime>  (1110) 
0.83641

$$$$
C4761-P423
     RDKit          3D

 11 12  0  0  0  0  0  0  0  0999 V2000
    7.0225   10.7200   25.2288 C   0  0  0  0  0  0  0  0  0  0  0  0
    7.5454    9.5649   24.8244 N   0  0  0  0  0  0  0  0  0  0  0  0
    8.4971    9.9304   23.9487 N   0  0  0  0  0  0  0  0  0  0  0  0
    8.6049   11.2865   23.8197 C   0  0  0  0  0  0  0  0  0  0  0  0
    7.6452   11.8448   24.6420 C   0  0  0  0  0  0  0  0  0  0  0  0
    7.3019   13.2778   24.9227 C   0  0  1  0  0  0  0  0  0  0  0  0
    8.5183   14.2238   25.0052 C   0  0  0  0  0  0  0  0  0  0  0  0
    9.2011   14.7652   23.4052 S   0  0  0  0  0  0  0  0  0  0  0  0
    7.6295   15.2410   22.6296 C   0  0  0  0  0  0  0  0  0  0  0  0
    6.6153   14.1049   22.6970 C   0  0  0  0  0  0  0  0  0  0  0  0
    6.2055   13.7256   24.0508 N   0  0  0  0  0  0  0  0  0  0  0  0
  1  2  2  0
  2  3  1  0
  3  4  1  0
  4  5  2  0
  6  5  1  6
  6  7  1  0
  7  8  1  0
  8  9  1  0
  9 10  1  0
 10 11  1  0
  5  1  1  0
 11  6  1  0
M  END
>  <ref_pdb>  (1111) 
A4650a

>  <subsites>  (1111) 
1 - Active Site,3 - A0541/A/147/1

>  <HIPPO Compound ID>  (1111) 
10574

>  <energy_score>  (1111) 
-30.716984

>  <fragmenstein_mode>  (1111) 
expansion

>  <scratch_subdir>  (1111) 
/opt/xchem-fragalysis-2/maxwin/BulkDock/SCRATCH/512222/C4761-P423

>  <smiles>  (1111) 
c1n[nH]cc1[C@H]1CSCCN1

>  <alias>  (1111) 
C4761-P423

>  <ref_mols>  (1111) 
A0556a,A0717a,A4650a

>  <inspiration_score>  (1111) 
None

>  <tags>  (1111) 
BulkDock Fragalysis export,fragmenstein_placed,openbind_a71ev2a_c1_knitwork_impure,openbind_a71ev2a_c1_scaffolds

>  <fragmenstein_outcome>  (1111) 
acceptable

>  <fragmenstein_error>  (1111) 


>  <distance_score>  (1111) 
0.838295

>  <inchikey>  (1111) 
YHYKEJKTQQPYIL-UHFFFAOYSA-N

>  <name>  (1111) 
C4761-P423

>  <HIPPO Pose ID>  (1111) 
473309

>  <Energy>  (1111) 
53.452367

>  <exports>  (1111) 
['/opt/xchem-fragalysis-2/maxwin/BulkDock/OUTPUTS/openbind_a71ev2a_c1_knitwork_impure_165VXJF.sdf', '/opt/xchem-fragalysis-2/maxwin/BulkDock/OUTPUTS/openbind_a71ev2a_c1_knitwork_impure_1B07QS4.sdf', '/opt/xchem-fragalysis-2/maxwin/BulkDock/OUTPUTS/openbind_a71ev2a_c1_knitwork_impure_1B07X5R.sdf', '/opt/xchem-fragalysis-2/maxwin/openbind-hippo/a71ev2a/openbind_a71ev2a_c1_scaffold_products.sdf', '/opt/xchem-fragalysis-2/maxwin/openbind-hippo/a71ev2a/cycle_01/bulkdock/openbind_a71ev2a_c1_scaffold_products.sdf', '/opt/xchem-fragalysis-2/maxwin/openbind-hippo/a71ev2a/cycle_01/bulkdock/openbind_a71ev2a_c1_scaffolds.sdf']

>  <fragmenstein_runtime>  (1111) 
0.664344

$$$$
C18193-P364
     RDKit          3D

 12 12  0  0  0  0  0  0  0  0999 V2000
    8.6537   11.0405   24.6231 C   0  0  0  0  0  0  0  0  0  0  0  0
    9.2766   12.4020   24.8471 C   0  0  0  0  0  0  0  0  0  0  0  0
    8.7274   13.2977   23.8849 O   0  0  0  0  0  0  0  0  0  0  0  0
    9.6860   14.2350   23.3405 N   0  0  0  0  0  0  0  0  0  0  0  0
   10.0351   15.3174   24.2470 C   0  0  0  0  0  0  0  0  0  0  0  0
   11.2523   15.0877   25.1330 C   0  0  0  0  0  0  0  0  0  0  0  0
   10.7230   13.5915   22.5401 C   0  0  0  0  0  0  0  0  0  0  0  0
   11.2504   14.5815   21.5864 C   0  0  0  0  0  0  0  0  0  0  0  0
   12.2237   15.5634   21.8310 C   0  0  0  0  0  0  0  0  0  0  0  0
   12.3835   16.3753   20.8019 N   0  0  0  0  0  0  0  0  0  0  0  0
   11.5892   15.8605   19.8511 N   0  0  0  0  0  0  0  0  0  0  0  0
   10.8752   14.7982   20.2809 C   0  0  0  0  0  0  0  0  0  0  0  0
  1  2  1  0
  2  3  1  0
  3  4  1  0
  4  5  1  0
  5  6  1  0
  4  7  1  0
  7  8  1  0
  8  9  1  0
  9 10  2  0
 10 11  1  0
 11 12  1  0
 12  8  2  0
M  END
>  <ref_pdb>  (1112) 
A4445b

>  <subsites>  (1112) 
1 - Active Site

>  <HIPPO Compound ID>  (1112) 
20144

>  <energy_score>  (1112) 
-27.883706

>  <fragmenstein_mode>  (1112) 
expansion

>  <scratch_subdir>  (1112) 
/opt/xchem-fragalysis-2/maxwin/BulkDock/SCRATCH/512222/C18193-P364

>  <smiles>  (1112) 
CCON(CC)Cc1cn[nH]c1

>  <alias>  (1112) 
C18193-P364

>  <ref_mols>  (1112) 
A2304a,A4445b

>  <inspiration_score>  (1112) 
None

>  <tags>  (1112) 
BulkDock Fragalysis export,fragmenstein_placed,openbind_a71ev2a_c1_knitwork_impure,openbind_a71ev2a_c1_scaffolds

>  <fragmenstein_outcome>  (1112) 
acceptable

>  <fragmenstein_error>  (1112) 


>  <distance_score>  (1112) 
0.956082

>  <inchikey>  (1112) 
AOLCLQJMUNNQFC-UHFFFAOYSA-N

>  <name>  (1112) 
C18193-P364

>  <HIPPO Pose ID>  (1112) 
473324

>  <Energy>  (1112) 
41.362383

>  <exports>  (1112) 
['/opt/xchem-fragalysis-2/maxwin/BulkDock/OUTPUTS/openbind_a71ev2a_c1_knitwork_impure_165VXJF.sdf', '/opt/xchem-fragalysis-2/maxwin/BulkDock/OUTPUTS/openbind_a71ev2a_c1_knitwork_impure_1B07QS4.sdf', '/opt/xchem-fragalysis-2/maxwin/BulkDock/OUTPUTS/openbind_a71ev2a_c1_knitwork_impure_1B07X5R.sdf', '/opt/xchem-fragalysis-2/maxwin/openbind-hippo/a71ev2a/openbind_a71ev2a_c1_scaffold_products.sdf', '/opt/xchem-fragalysis-2/maxwin/openbind-hippo/a71ev2a/cycle_01/bulkdock/openbind_a71ev2a_c1_scaffold_products.sdf', '/opt/xchem-fragalysis-2/maxwin/openbind-hippo/a71ev2a/cycle_01/bulkdock/openbind_a71ev2a_c1_scaffolds.sdf']

>  <fragmenstein_runtime>  (1112) 
2.694173

$$$$
C961-P288
     RDKit          3D

 18 20  0  0  0  0  0  0  0  0999 V2000
   25.9814   13.0496   -2.4725 O   0  0  0  0  0  0  0  0  0  0  0  0
   25.0698   12.5223   -1.9615 C   0  0  0  0  0  0  0  0  0  0  0  0
   23.7399   11.9854   -2.5742 N   0  0  0  0  0  0  0  0  0  0  0  0
   23.2520   12.0705   -3.8495 N   0  0  0  0  0  0  0  0  0  0  0  0
   22.3815   11.0831   -4.2181 C   0  0  0  0  0  0  0  0  0  0  0  0
   21.6819   10.3189   -3.4405 N   0  0  0  0  0  0  0  0  0  0  0  0
   20.8949    9.3729   -4.2537 C   0  0  0  0  0  0  0  0  0  0  0  0
   20.6536    9.9533   -5.6358 C   0  0  0  0  0  0  0  0  0  0  0  0
   22.1786   10.8561   -5.9424 S   0  0  0  0  0  0  0  0  0  0  0  0
   25.0640   12.1363   -0.4675 C   0  0  1  0  0  0  0  0  0  0  0  0
   26.4192   12.4425    0.2016 C   0  0  0  0  0  0  0  0  0  0  0  0
   26.3475   12.2712    1.7228 C   0  0  0  0  0  0  0  0  0  0  0  0
   25.3048   13.2056    2.3368 C   0  0  0  0  0  0  0  0  0  0  0  0
   24.0960   13.2686    1.5507 N   0  0  0  0  0  0  0  0  0  0  0  0
   22.9074   13.8196    1.8996 C   0  0  0  0  0  0  0  0  0  0  0  0
   22.0627   13.6870    0.9018 N   0  0  0  0  0  0  0  0  0  0  0  0
   22.7194   13.0407   -0.1225 N   0  0  0  0  0  0  0  0  0  0  0  0
   23.9600   12.8258    0.2631 C   0  0  0  0  0  0  0  0  0  0  0  0
  1  2  2  0
  2  3  1  0
  3  4  1  0
  4  5  1  0
  5  6  2  0
  6  7  1  0
  7  8  1  0
  8  9  1  0
 10  2  1  6
 10 11  1  0
 11 12  1  0
 12 13  1  0
 13 14  1  0
 14 15  1  0
 15 16  2  0
 16 17  1  0
 17 18  2  0
  9  5  1  0
 18 10  1  0
 18 14  1  0
M  END
>  <ref_pdb>  (1113) 
A4304a

>  <subsites>  (1113) 
1 - Active Site,6 - A0486/A/147/1

>  <HIPPO Compound ID>  (1113) 
9522

>  <energy_score>  (1113) 
-51.756074

>  <fragmenstein_mode>  (1113) 
expansion

>  <scratch_subdir>  (1113) 
/opt/xchem-fragalysis-2/maxwin/BulkDock/SCRATCH/512222/C961-P288

>  <smiles>  (1113) 
O=C(NNC1=NCCS1)[C@H]1CCCn2cnnc21

>  <alias>  (1113) 
C961-P288

>  <ref_mols>  (1113) 
A4304a,A0239a

>  <inspiration_score>  (1113) 
None

>  <tags>  (1113) 
BulkDock Fragalysis export,fragmenstein_placed,openbind_a71ev2a_c1_knitwork_impure,openbind_a71ev2a_c1_scaffolds

>  <fragmenstein_outcome>  (1113) 
acceptable

>  <fragmenstein_error>  (1113) 


>  <distance_score>  (1113) 
0.506362

>  <inchikey>  (1113) 
NCZRZHLAOIEOQJ-UHFFFAOYSA-N

>  <name>  (1113) 
C961-P288

>  <HIPPO Pose ID>  (1113) 
473346

>  <Energy>  (1113) 
27.882552

>  <exports>  (1113) 
['/opt/xchem-fragalysis-2/maxwin/BulkDock/OUTPUTS/openbind_a71ev2a_c1_knitwork_impure_165VXJF.sdf', '/opt/xchem-fragalysis-2/maxwin/BulkDock/OUTPUTS/openbind_a71ev2a_c1_knitwork_impure_1B07QS4.sdf', '/opt/xchem-fragalysis-2/maxwin/BulkDock/OUTPUTS/openbind_a71ev2a_c1_knitwork_impure_1B07X5R.sdf', '/opt/xchem-fragalysis-2/maxwin/openbind-hippo/a71ev2a/openbind_a71ev2a_c1_scaffold_products.sdf', '/opt/xchem-fragalysis-2/maxwin/openbind-hippo/a71ev2a/cycle_01/bulkdock/openbind_a71ev2a_c1_scaffold_products.sdf', '/opt/xchem-fragalysis-2/maxwin/openbind-hippo/a71ev2a/cycle_01/bulkdock/openbind_a71ev2a_c1_scaffolds.sdf']

>  <fragmenstein_runtime>  (1113) 
2.337439

$$$$
C8156-P364
     RDKit          3D

 14 14  0  0  0  0  0  0  0  0999 V2000
    7.8300   13.7495   22.8198 C   0  0  0  0  0  0  0  0  0  0  0  0
    9.0700   13.2992   23.5929 C   0  0  2  0  0  0  0  0  0  0  0  0
    9.4306   11.9587   23.2180 O   0  0  0  0  0  0  0  0  0  0  0  0
    8.8952   13.2947   25.1162 C   0  0  0  0  0  0  0  0  0  0  0  0
    9.8765   13.1691   25.8636 O   0  0  0  0  0  0  0  0  0  0  0  0
    7.4665   13.2737   25.6912 C   0  0  1  0  0  0  0  0  0  0  0  0
    7.0069   11.8175   25.7912 C   0  0  0  0  0  0  0  0  0  0  0  0
    5.6859   11.6815   26.5359 C   0  0  0  0  0  0  0  0  0  0  0  0
    5.6819   12.4573   27.8445 C   0  0  0  0  0  0  0  0  0  0  0  0
    6.1549   13.8914   27.6380 C   0  0  0  0  0  0  0  0  0  0  0  0
    7.4627   13.9544   26.9949 N   0  0  0  0  0  0  0  0  0  0  0  0
   10.2103   14.2843   23.2745 C   0  0  0  0  0  0  0  0  0  0  0  0
   10.0701   15.4319   23.9908 F   0  0  0  0  0  0  0  0  0  0  0  0
   10.1430   14.6709   21.9688 F   0  0  0  0  0  0  0  0  0  0  0  0
  2  1  1  6
  2  3  1  0
  2  4  1  0
  4  5  2  0
  6  4  1  1
  6  7  1  0
  7  8  1  0
  8  9  1  0
  9 10  1  0
 10 11  1  0
  2 12  1  0
 12 13  1  0
 12 14  1  0
 11  6  1  0
M  END
>  <ref_pdb>  (1114) 
A4445b

>  <subsites>  (1114) 
1 - Active Site

>  <HIPPO Compound ID>  (1114) 
3473

>  <energy_score>  (1114) 
-29.802301

>  <fragmenstein_mode>  (1114) 
expansion

>  <scratch_subdir>  (1114) 
/opt/xchem-fragalysis-2/maxwin/BulkDock/SCRATCH/512222/C8156-P364

>  <smiles>  (1114) 
C[C@](O)(C(=O)[C@H]1CCCCN1)C(F)F

>  <alias>  (1114) 
C8156-P364

>  <ref_mols>  (1114) 
A4445b,A0719a

>  <inspiration_score>  (1114) 
None

>  <tags>  (1114) 
BulkDock Fragalysis export,fragmenstein_placed,openbind_a71ev2a_c1_knitwork_impure,openbind_a71ev2a_c1_scaffolds

>  <fragmenstein_outcome>  (1114) 
acceptable

>  <fragmenstein_error>  (1114) 


>  <distance_score>  (1114) 
0.998032

>  <inchikey>  (1114) 
FJKFFRDIVHDZAT-UHFFFAOYSA-N

>  <name>  (1114) 
C8156-P364

>  <HIPPO Pose ID>  (1114) 
474184

>  <Energy>  (1114) 
81.639219

>  <exports>  (1114) 
['/opt/xchem-fragalysis-2/maxwin/BulkDock/OUTPUTS/openbind_a71ev2a_c1_knitwork_impure_165VXJF.sdf', '/opt/xchem-fragalysis-2/maxwin/BulkDock/OUTPUTS/openbind_a71ev2a_c1_knitwork_impure_1B07QS4.sdf', '/opt/xchem-fragalysis-2/maxwin/BulkDock/OUTPUTS/openbind_a71ev2a_c1_knitwork_impure_1B07X5R.sdf', '/opt/xchem-fragalysis-2/maxwin/openbind-hippo/a71ev2a/openbind_a71ev2a_c1_scaffold_products.sdf', '/opt/xchem-fragalysis-2/maxwin/openbind-hippo/a71ev2a/cycle_01/bulkdock/openbind_a71ev2a_c1_scaffold_products.sdf', '/opt/xchem-fragalysis-2/maxwin/openbind-hippo/a71ev2a/cycle_01/bulkdock/openbind_a71ev2a_c1_scaffolds.sdf']

>  <fragmenstein_runtime>  (1114) 
7.89655

$$$$
C956-P233
     RDKit          3D

 18 20  0  0  0  0  0  0  0  0999 V2000
   22.4157   14.1758    2.9557 C   0  0  0  0  0  0  0  0  0  0  0  0
   22.8159   13.5701    1.6717 C   0  0  0  0  0  0  0  0  0  0  0  0
   22.1260   13.5733    0.5493 N   0  0  0  0  0  0  0  0  0  0  0  0
   22.8764   12.9448   -0.4175 N   0  0  0  0  0  0  0  0  0  0  0  0
   24.0107   12.5657    0.1359 C   0  0  0  0  0  0  0  0  0  0  0  0
   24.0034   12.9300    1.4552 N   0  0  0  0  0  0  0  0  0  0  0  0
   25.1190   12.7757    2.3628 C   0  0  0  0  0  0  0  0  0  0  0  0
   26.2078   11.8568    1.8068 C   0  0  0  0  0  0  0  0  0  0  0  0
   26.4562   12.1270    0.3202 C   0  0  0  0  0  0  0  0  0  0  0  0
   25.1795   11.8886   -0.4986 C   0  0  2  0  0  0  0  0  0  0  0  0
   25.2961   12.3839   -1.8485 N   0  0  0  0  0  0  0  0  0  0  0  0
   26.4469   12.2474   -2.8724 C   0  0  0  0  0  0  0  0  0  0  0  0
   27.4451   11.6494   -2.8110 O   0  0  0  0  0  0  0  0  0  0  0  0
   26.0201   13.0562   -4.0914 C   0  0  0  0  0  0  0  0  0  0  0  0
   27.0492   13.0463   -5.2206 C   0  0  0  0  0  0  0  0  0  0  0  0
   26.5561   13.7006   -6.5425 C   0  0  0  0  0  0  0  0  0  0  0  0
   27.6056   12.5520   -7.4904 S   0  0  0  0  0  0  0  0  0  0  0  0
   27.2878   11.6751   -5.9205 C   0  0  0  0  0  0  0  0  0  0  0  0
  1  2  1  0
  2  3  2  0
  3  4  1  0
  4  5  2  0
  5  6  1  0
  6  7  1  0
  7  8  1  0
  8  9  1  0
  9 10  1  0
 10 11  1  6
 11 12  1  0
 12 13  2  0
 12 14  1  0
 14 15  1  0
 15 16  1  0
 16 17  1  0
 17 18  1  0
  6  2  1  0
 18 15  1  0
 10  5  1  0
M  END
>  <ref_pdb>  (1115) 
A3890a

>  <subsites>  (1115) 
1 - Active Site,6 - A0486/A/147/1

>  <HIPPO Compound ID>  (1115) 
7045

>  <energy_score>  (1115) 
-9.306262

>  <fragmenstein_mode>  (1115) 
expansion

>  <scratch_subdir>  (1115) 
/opt/xchem-fragalysis-2/maxwin/BulkDock/SCRATCH/512222/C956-P233

>  <smiles>  (1115) 
Cc1nnc2n1CCC[C@@H]2NC(=O)CC1CSC1

>  <alias>  (1115) 
C956-P233

>  <ref_mols>  (1115) 
A3890a,A0239a

>  <inspiration_score>  (1115) 
None

>  <tags>  (1115) 
BulkDock Fragalysis export,fragmenstein_placed,openbind_a71ev2a_c1_knitwork_impure,openbind_a71ev2a_c1_scaffolds

>  <fragmenstein_outcome>  (1115) 
acceptable

>  <fragmenstein_error>  (1115) 


>  <distance_score>  (1115) 
0.339411

>  <inchikey>  (1115) 
KGGJPHPTENSXJT-UHFFFAOYSA-N

>  <name>  (1115) 
C956-P233

>  <HIPPO Pose ID>  (1115) 
474245

>  <Energy>  (1115) 
-12.093098

>  <exports>  (1115) 
['/opt/xchem-fragalysis-2/maxwin/BulkDock/OUTPUTS/openbind_a71ev2a_c1_knitwork_impure_165VXJF.sdf', '/opt/xchem-fragalysis-2/maxwin/BulkDock/OUTPUTS/openbind_a71ev2a_c1_knitwork_impure_1B07QS4.sdf', '/opt/xchem-fragalysis-2/maxwin/BulkDock/OUTPUTS/openbind_a71ev2a_c1_knitwork_impure_1B07X5R.sdf', '/opt/xchem-fragalysis-2/maxwin/openbind-hippo/a71ev2a/openbind_a71ev2a_c1_scaffold_products.sdf', '/opt/xchem-fragalysis-2/maxwin/openbind-hippo/a71ev2a/cycle_01/bulkdock/openbind_a71ev2a_c1_scaffold_products.sdf', '/opt/xchem-fragalysis-2/maxwin/openbind-hippo/a71ev2a/cycle_01/bulkdock/openbind_a71ev2a_c1_scaffolds.sdf']

>  <fragmenstein_runtime>  (1115) 
5.042852

$$$$
C1002-P233
     RDKit          3D

 20 22  0  0  0  0  0  0  0  0999 V2000
   30.3043    7.9564    1.3616 C   0  0  0  0  0  0  0  0  0  0  0  0
   30.0455    9.0362    1.8197 C   0  0  0  0  0  0  0  0  0  0  0  0
   29.7414   10.3605    2.3824 C   0  0  2  0  0  0  0  0  0  0  0  0
   28.4210   10.7529    1.9602 N   0  0  0  0  0  0  0  0  0  0  0  0
   27.4960   11.8849    2.4730 C   0  0  0  0  0  0  0  0  0  0  0  0
   27.6912   12.7207    3.2624 O   0  0  0  0  0  0  0  0  0  0  0  0
   26.1812   11.7772    1.6914 C   0  0  2  0  0  0  0  0  0  0  0  0
   26.3704   12.0856    0.1937 C   0  0  0  0  0  0  0  0  0  0  0  0
   25.0579   11.8821   -0.5674 C   0  0  0  0  0  0  0  0  0  0  0  0
   23.9360   12.5675    0.1144 C   0  0  0  0  0  0  0  0  0  0  0  0
   22.7741   12.9281   -0.3822 N   0  0  0  0  0  0  0  0  0  0  0  0
   22.0667   13.5528    0.6198 N   0  0  0  0  0  0  0  0  0  0  0  0
   22.8115   13.5576    1.7069 C   0  0  0  0  0  0  0  0  0  0  0  0
   22.4726   14.1646    3.0067 C   0  0  0  0  0  0  0  0  0  0  0  0
   23.9879   12.9198    1.4345 N   0  0  0  0  0  0  0  0  0  0  0  0
   25.1403   12.7399    2.2933 C   0  0  0  0  0  0  0  0  0  0  0  0
   30.7094   11.4052    1.8337 C   0  0  0  0  0  0  0  0  0  0  0  0
   30.7627   12.7932    2.5379 C   0  0  0  0  0  0  0  0  0  0  0  0
   32.2813   12.7893    2.2765 C   0  0  0  0  0  0  0  0  0  0  0  0
   32.1990   11.2508    2.2644 C   0  0  0  0  0  0  0  0  0  0  0  0
  1  2  3  0
  3  2  1  6
  3  4  1  0
  4  5  1  0
  5  6  2  0
  7  5  1  1
  7  8  1  0
  8  9  1  0
  9 10  1  0
 10 11  2  0
 11 12  1  0
 12 13  2  0
 13 14  1  0
 13 15  1  0
 15 16  1  0
  3 17  1  0
 17 18  1  0
 18 19  1  0
 19 20  1  0
 16  7  1  0
 20 17  1  0
 15 10  1  0
M  END
>  <ref_pdb>  (1116) 
A3890a

>  <subsites>  (1116) 
1 - Active Site,6 - A0486/A/147/1

>  <HIPPO Compound ID>  (1116) 
10681

>  <energy_score>  (1116) 
-8.238322

>  <fragmenstein_mode>  (1116) 
expansion

>  <scratch_subdir>  (1116) 
/opt/xchem-fragalysis-2/maxwin/BulkDock/SCRATCH/512222/C1002-P233

>  <smiles>  (1116) 
C#C[C@H](NC(=O)[C@@H]1CCc2nnc(C)n2C1)C1CCC1

>  <alias>  (1116) 
C1002-P233

>  <ref_mols>  (1116) 
A3890a,A0239a

>  <inspiration_score>  (1116) 
None

>  <tags>  (1116) 
BulkDock Fragalysis export,fragmenstein_placed,openbind_a71ev2a_c1_knitwork_impure,openbind_a71ev2a_c1_scaffolds

>  <fragmenstein_outcome>  (1116) 
acceptable

>  <fragmenstein_error>  (1116) 


>  <distance_score>  (1116) 
0.34466

>  <inchikey>  (1116) 
LRTLCHQEZXDGPD-UHFFFAOYSA-N

>  <name>  (1116) 
C1002-P233

>  <HIPPO Pose ID>  (1116) 
474246

>  <Energy>  (1116) 
-15.683194

>  <exports>  (1116) 
['/opt/xchem-fragalysis-2/maxwin/BulkDock/OUTPUTS/openbind_a71ev2a_c1_knitwork_impure_165VXJF.sdf', '/opt/xchem-fragalysis-2/maxwin/BulkDock/OUTPUTS/openbind_a71ev2a_c1_knitwork_impure_1B07QS4.sdf', '/opt/xchem-fragalysis-2/maxwin/BulkDock/OUTPUTS/openbind_a71ev2a_c1_knitwork_impure_1B07X5R.sdf', '/opt/xchem-fragalysis-2/maxwin/openbind-hippo/a71ev2a/openbind_a71ev2a_c1_scaffold_products.sdf', '/opt/xchem-fragalysis-2/maxwin/openbind-hippo/a71ev2a/cycle_01/bulkdock/openbind_a71ev2a_c1_scaffold_products.sdf', '/opt/xchem-fragalysis-2/maxwin/openbind-hippo/a71ev2a/cycle_01/bulkdock/openbind_a71ev2a_c1_scaffolds.sdf']

>  <fragmenstein_runtime>  (1116) 
19.444535

$$$$
C1003-P233
     RDKit          3D

 23 25  0  0  0  0  0  0  0  0999 V2000
   31.3861   10.6387   -0.5198 C   0  0  0  0  0  0  0  0  0  0  0  0
   30.8292   11.0261    0.4717 C   0  0  0  0  0  0  0  0  0  0  0  0
   30.1462   11.5052    1.6813 C   0  0  1  0  0  0  0  0  0  0  0  0
   28.7285   11.5347    1.4336 N   0  0  0  0  0  0  0  0  0  0  0  0
   27.6501   12.5544    1.8801 C   0  0  0  0  0  0  0  0  0  0  0  0
   27.7570   13.5657    2.4509 O   0  0  0  0  0  0  0  0  0  0  0  0
   26.2997   12.0559    1.3271 C   0  0  2  0  0  0  0  0  0  0  0  0
   26.3578   12.0215   -0.2125 C   0  0  0  0  0  0  0  0  0  0  0  0
   25.0362   11.5450   -0.7934 C   0  0  0  0  0  0  0  0  0  0  0  0
   23.9219   12.3510   -0.2600 C   0  0  0  0  0  0  0  0  0  0  0  0
   22.7738   12.5992   -0.8392 N   0  0  0  0  0  0  0  0  0  0  0  0
   22.0820   13.4494   -0.0292 N   0  0  0  0  0  0  0  0  0  0  0  0
   22.8165   13.7257    1.0347 C   0  0  0  0  0  0  0  0  0  0  0  0
   22.3456   14.6333    2.1433 C   0  0  0  0  0  0  0  0  0  0  0  0
   21.2507   15.5828    1.6057 C   0  0  0  0  0  0  0  0  0  0  0  0
   21.6738   13.7694    3.1975 C   0  0  0  0  0  0  0  0  0  0  0  0
   23.4605   15.5124    2.7178 C   0  0  0  0  0  0  0  0  0  0  0  0
   23.9810   12.9962    0.9484 N   0  0  0  0  0  0  0  0  0  0  0  0
   25.1521   12.9838    1.8070 C   0  0  0  0  0  0  0  0  0  0  0  0
   30.3768   10.5620    2.8498 C   0  0  0  0  0  0  0  0  0  0  0  0
   29.8635   11.0328    4.2350 C   0  0  0  0  0  0  0  0  0  0  0  0
   31.1223   10.3886    4.8480 C   0  0  0  0  0  0  0  0  0  0  0  0
   31.8002   10.5845    3.4785 C   0  0  0  0  0  0  0  0  0  0  0  0
  1  2  3  0
  3  2  1  6
  3  4  1  0
  4  5  1  0
  5  6  2  0
  7  5  1  1
  7  8  1  0
  8  9  1  0
  9 10  1  0
 10 11  2  0
 11 12  1  0
 12 13  2  0
 13 14  1  0
 14 15  1  0
 14 16  1  0
 14 17  1  0
 13 18  1  0
 18 19  1  0
  3 20  1  0
 20 21  1  0
 21 22  1  0
 22 23  1  0
 19  7  1  0
 23 20  1  0
 18 10  1  0
M  END
>  <ref_pdb>  (1117) 
A3890a

>  <subsites>  (1117) 
1 - Active Site,6 - A0486/A/147/1

>  <HIPPO Compound ID>  (1117) 
21624

>  <energy_score>  (1117) 
-24.64993

>  <fragmenstein_mode>  (1117) 
expansion

>  <scratch_subdir>  (1117) 
/opt/xchem-fragalysis-2/maxwin/BulkDock/SCRATCH/512222/C1003-P233

>  <smiles>  (1117) 
C#C[C@@H](NC(=O)[C@@H]1CCc2nnc(C(C)(C)C)n2C1)C1CCC1

>  <alias>  (1117) 
C1003-P233

>  <ref_mols>  (1117) 
A3890a,A0239a

>  <inspiration_score>  (1117) 
None

>  <tags>  (1117) 
BulkDock Fragalysis export,fragmenstein_placed,openbind_a71ev2a_c1_knitwork_impure,openbind_a71ev2a_c1_scaffolds

>  <fragmenstein_outcome>  (1117) 
acceptable

>  <fragmenstein_error>  (1117) 


>  <distance_score>  (1117) 
0.937604

>  <inchikey>  (1117) 
NXHRTCNOEDZCPH-UHFFFAOYSA-N

>  <name>  (1117) 
C1003-P233

>  <HIPPO Pose ID>  (1117) 
474247

>  <Energy>  (1117) 
0.657471

>  <exports>  (1117) 
['/opt/xchem-fragalysis-2/maxwin/BulkDock/OUTPUTS/openbind_a71ev2a_c1_knitwork_impure_165VXJF.sdf', '/opt/xchem-fragalysis-2/maxwin/BulkDock/OUTPUTS/openbind_a71ev2a_c1_knitwork_impure_1B07QS4.sdf', '/opt/xchem-fragalysis-2/maxwin/BulkDock/OUTPUTS/openbind_a71ev2a_c1_knitwork_impure_1B07X5R.sdf', '/opt/xchem-fragalysis-2/maxwin/openbind-hippo/a71ev2a/openbind_a71ev2a_c1_scaffold_products.sdf', '/opt/xchem-fragalysis-2/maxwin/openbind-hippo/a71ev2a/cycle_01/bulkdock/openbind_a71ev2a_c1_scaffold_products.sdf', '/opt/xchem-fragalysis-2/maxwin/openbind-hippo/a71ev2a/cycle_01/bulkdock/openbind_a71ev2a_c1_scaffolds.sdf']

>  <fragmenstein_runtime>  (1117) 
75.89126

$$$$
C4745-P180
     RDKit          3D

 11 12  0  0  0  0  0  0  0  0999 V2000
   11.5049   15.0889   22.2059 C   0  0  0  0  0  0  0  0  0  0  0  0
   11.1497   14.3255   23.2923 C   0  0  0  0  0  0  0  0  0  0  0  0
    9.7706   14.0479   23.1100 C   0  0  0  0  0  0  0  0  0  0  0  0
    8.8445   13.1688   23.9000 C   0  0  2  0  0  0  0  0  0  0  0  0
    8.5849   13.6876   25.3282 C   0  0  0  0  0  0  0  0  0  0  0  0
    7.5448   12.9926   26.1240 N   0  0  0  0  0  0  0  0  0  0  0  0
    7.2344   11.6481   25.6196 C   0  0  0  0  0  0  0  0  0  0  0  0
    8.4630   10.8004   25.2937 C   0  0  0  0  0  0  0  0  0  0  0  0
    9.4663   11.4368   23.9277 S   0  0  0  0  0  0  0  0  0  0  0  0
    9.2901   14.6736   22.0272 N   0  0  0  0  0  0  0  0  0  0  0  0
   10.3751   15.2212   21.4521 N   0  0  0  0  0  0  0  0  0  0  0  0
  1  2  2  0
  2  3  1  0
  4  3  1  1
  4  5  1  0
  5  6  1  0
  6  7  1  0
  7  8  1  0
  8  9  1  0
  3 10  2  0
 10 11  1  0
 11  1  1  0
  9  4  1  0
M  END
>  <ref_pdb>  (1118) 
A3417a

>  <subsites>  (1118) 
1 - Active Site

>  <HIPPO Compound ID>  (1118) 
7041

>  <energy_score>  (1118) 
-23.971297

>  <fragmenstein_mode>  (1118) 
expansion

>  <scratch_subdir>  (1118) 
/opt/xchem-fragalysis-2/maxwin/BulkDock/SCRATCH/512222/C4745-P180

>  <smiles>  (1118) 
c1cc([C@@H]2CNCCS2)n[nH]1

>  <alias>  (1118) 
C4745-P180

>  <ref_mols>  (1118) 
A2304a,A3417a

>  <inspiration_score>  (1118) 
None

>  <tags>  (1118) 
BulkDock Fragalysis export,fragmenstein_placed,openbind_a71ev2a_c1_knitwork_impure,openbind_a71ev2a_c1_scaffolds

>  <fragmenstein_outcome>  (1118) 
acceptable

>  <fragmenstein_error>  (1118) 


>  <distance_score>  (1118) 
0.914289

>  <inchikey>  (1118) 
SCPSUPJJEYGKII-UHFFFAOYSA-N

>  <name>  (1118) 
C4745-P180

>  <HIPPO Pose ID>  (1118) 
474378

>  <Energy>  (1118) 
84.248854

>  <exports>  (1118) 
['/opt/xchem-fragalysis-2/maxwin/BulkDock/OUTPUTS/openbind_a71ev2a_c1_knitwork_impure_165VXJF.sdf', '/opt/xchem-fragalysis-2/maxwin/BulkDock/OUTPUTS/openbind_a71ev2a_c1_knitwork_impure_1B07QS4.sdf', '/opt/xchem-fragalysis-2/maxwin/BulkDock/OUTPUTS/openbind_a71ev2a_c1_knitwork_impure_1B07X5R.sdf', '/opt/xchem-fragalysis-2/maxwin/openbind-hippo/a71ev2a/openbind_a71ev2a_c1_scaffold_products.sdf', '/opt/xchem-fragalysis-2/maxwin/openbind-hippo/a71ev2a/cycle_01/bulkdock/openbind_a71ev2a_c1_scaffold_products.sdf', '/opt/xchem-fragalysis-2/maxwin/openbind-hippo/a71ev2a/cycle_01/bulkdock/openbind_a71ev2a_c1_scaffolds.sdf']

>  <fragmenstein_runtime>  (1118) 
7.09495

$$$$
C1360-P259
     RDKit          3D

 21 22  0  0  0  0  0  0  0  0999 V2000
    9.3601   14.0103   24.9096 C   0  0  0  0  0  0  0  0  0  0  0  0
    7.8900   13.8862   24.4664 C   0  0  1  0  0  0  0  0  0  0  0  0
    7.7617   13.9437   22.9370 C   0  0  0  0  0  0  0  0  0  0  0  0
    7.3309   13.0652   22.3050 O   0  0  0  0  0  0  0  0  0  0  0  0
    8.3863   15.2751   22.4955 N   0  0  0  0  0  0  0  0  0  0  0  0
    8.6877   15.7484   21.2382 O   0  0  0  0  0  0  0  0  0  0  0  0
    9.6998   14.8770   20.7119 C   0  0  0  0  0  0  0  0  0  0  0  0
   10.0437   15.3094   19.3066 C   0  0  0  0  0  0  0  0  0  0  0  0
   10.8676   16.5378   19.5410 C   0  0  0  0  0  0  0  0  0  0  0  0
   11.6321   16.2919   20.8516 C   0  0  0  0  0  0  0  0  0  0  0  0
   11.0321   15.0298   21.4451 C   0  0  0  0  0  0  0  0  0  0  0  0
    7.2694   12.6019   25.0150 C   0  0  0  0  0  0  0  0  0  0  0  0
    7.9194   11.3643   24.8687 C   0  0  0  0  0  0  0  0  0  0  0  0
    7.3642   10.2007   25.3921 C   0  0  0  0  0  0  0  0  0  0  0  0
    6.2012   10.2650   26.1472 C   0  0  0  0  0  0  0  0  0  0  0  0
    5.5219   11.4731   26.2594 C   0  0  0  0  0  0  0  0  0  0  0  0
    5.9901   12.6197   25.6005 C   0  0  0  0  0  0  0  0  0  0  0  0
    5.0829   13.8215   25.4639 C   0  0  0  0  0  0  0  0  0  0  0  0
    5.4120   14.7917   26.3666 F   0  0  0  0  0  0  0  0  0  0  0  0
    5.1422   14.4234   24.2401 F   0  0  0  0  0  0  0  0  0  0  0  0
    3.7680   13.5456   25.6953 F   0  0  0  0  0  0  0  0  0  0  0  0
  2  1  1  6
  2  3  1  0
  3  4  2  0
  3  5  1  0
  5  6  1  0
  6  7  1  0
  7  8  1  0
  8  9  1  0
  9 10  1  0
 10 11  1  0
  2 12  1  0
 12 13  2  0
 13 14  1  0
 14 15  2  0
 15 16  1  0
 16 17  2  0
 17 18  1  0
 18 19  1  0
 18 20  1  0
 18 21  1  0
 11  7  1  0
 17 12  1  0
M  END
>  <ref_pdb>  (1119) 
A3990a

>  <subsites>  (1119) 
1 - Active Site

>  <HIPPO Compound ID>  (1119) 
758

>  <energy_score>  (1119) 
-7.162333

>  <fragmenstein_mode>  (1119) 
expansion

>  <scratch_subdir>  (1119) 
/opt/xchem-fragalysis-2/maxwin/BulkDock/SCRATCH/512222/C1360-P259

>  <smiles>  (1119) 
C[C@@H](C(=O)NOC1CCCC1)c1ccccc1C(F)(F)F

>  <alias>  (1119) 
C1360-P259

>  <ref_mols>  (1119) 
A1080a,A3990a

>  <inspiration_score>  (1119) 
None

>  <tags>  (1119) 
BulkDock Fragalysis export,fragmenstein_placed,openbind_a71ev2a_c1_knitwork_impure,openbind_a71ev2a_c1_scaffolds

>  <fragmenstein_outcome>  (1119) 
acceptable

>  <fragmenstein_error>  (1119) 


>  <distance_score>  (1119) 
0.895155

>  <inchikey>  (1119) 
GITLVNUSBOZLGB-UHFFFAOYSA-N

>  <name>  (1119) 
C1360-P259

>  <HIPPO Pose ID>  (1119) 
474671

>  <Energy>  (1119) 
123.1212

>  <exports>  (1119) 
['/opt/xchem-fragalysis-2/maxwin/BulkDock/OUTPUTS/openbind_a71ev2a_c1_knitwork_impure_165VXJF.sdf', '/opt/xchem-fragalysis-2/maxwin/BulkDock/OUTPUTS/openbind_a71ev2a_c1_knitwork_impure_1B07QS4.sdf', '/opt/xchem-fragalysis-2/maxwin/BulkDock/OUTPUTS/openbind_a71ev2a_c1_knitwork_impure_1B07X5R.sdf', '/opt/xchem-fragalysis-2/maxwin/openbind-hippo/a71ev2a/openbind_a71ev2a_c1_scaffold_products.sdf', '/opt/xchem-fragalysis-2/maxwin/openbind-hippo/a71ev2a/cycle_01/bulkdock/openbind_a71ev2a_c1_scaffold_products.sdf', '/opt/xchem-fragalysis-2/maxwin/openbind-hippo/a71ev2a/cycle_01/bulkdock/openbind_a71ev2a_c1_scaffolds.sdf']

>  <fragmenstein_runtime>  (1119) 
18.234272

$$$$
C34717-P248
     RDKit          3D

 14 14  0  0  0  0  0  0  0  0999 V2000
    8.9181    8.5626   23.4840 C   0  0  0  0  0  0  0  0  0  0  0  0
    9.2214   10.0284   23.5134 C   0  0  0  0  0  0  0  0  0  0  0  0
    8.1463   10.7033   24.1948 O   0  0  0  0  0  0  0  0  0  0  0  0
    8.2348   12.0351   24.4583 C   0  0  0  0  0  0  0  0  0  0  0  0
    7.5136   12.5599   25.3020 O   0  0  0  0  0  0  0  0  0  0  0  0
    9.2665   12.8103   23.6463 C   0  0  2  0  0  0  0  0  0  0  0  0
   10.5864   12.5171   24.1004 O   0  0  0  0  0  0  0  0  0  0  0  0
    8.9638   14.3149   23.6751 C   0  0  0  0  0  0  0  0  0  0  0  0
    9.8519   15.0253   22.7633 N   0  0  0  0  0  0  0  0  0  0  0  0
    9.5647   15.1905   21.3575 C   0  0  0  0  0  0  0  0  0  0  0  0
   10.9367   15.2736   20.7190 C   0  0  0  0  0  0  0  0  0  0  0  0
   11.8169   15.8562   21.8147 C   0  0  0  0  0  0  0  0  0  0  0  0
   11.1614   15.3510   23.0671 C   0  0  0  0  0  0  0  0  0  0  0  0
   11.6731   15.2443   24.1722 O   0  0  0  0  0  0  0  0  0  0  0  0
  1  2  1  0
  2  3  1  0
  3  4  1  0
  4  5  2  0
  4  6  1  0
  6  7  1  1
  6  8  1  0
  8  9  1  0
  9 10  1  0
 10 11  1  0
 11 12  1  0
 12 13  1  0
 13 14  2  0
 13  9  1  0
M  END
>  <ref_pdb>  (1120) 
A3956a

>  <subsites>  (1120) 
1 - Active Site

>  <HIPPO Compound ID>  (1120) 
7140

>  <energy_score>  (1120) 
-27.092252

>  <fragmenstein_mode>  (1120) 
expansion

>  <scratch_subdir>  (1120) 
/opt/xchem-fragalysis-2/maxwin/BulkDock/SCRATCH/512222/C34717-P248

>  <smiles>  (1120) 
CCOC(=O)[C@H](O)CN1CCCC1=O

>  <alias>  (1120) 
C34717-P248

>  <ref_mols>  (1120) 
A3956a,A0719a

>  <inspiration_score>  (1120) 
None

>  <tags>  (1120) 
BulkDock Fragalysis export,fragmenstein_placed,openbind_a71ev2a_c1_knitwork_impure,openbind_a71ev2a_c1_scaffolds

>  <fragmenstein_outcome>  (1120) 
acceptable

>  <fragmenstein_error>  (1120) 


>  <distance_score>  (1120) 
0.877221

>  <inchikey>  (1120) 
WMMQWHGSTLBODB-UHFFFAOYSA-N

>  <name>  (1120) 
C34717-P248

>  <HIPPO Pose ID>  (1120) 
474766

>  <Energy>  (1120) 
28.060371

>  <exports>  (1120) 
['/opt/xchem-fragalysis-2/maxwin/BulkDock/OUTPUTS/openbind_a71ev2a_c1_knitwork_impure_165VXJF.sdf', '/opt/xchem-fragalysis-2/maxwin/BulkDock/OUTPUTS/openbind_a71ev2a_c1_knitwork_impure_1B07QS4.sdf', '/opt/xchem-fragalysis-2/maxwin/BulkDock/OUTPUTS/openbind_a71ev2a_c1_knitwork_impure_1B07X5R.sdf', '/opt/xchem-fragalysis-2/maxwin/openbind-hippo/a71ev2a/openbind_a71ev2a_c1_scaffold_products.sdf', '/opt/xchem-fragalysis-2/maxwin/openbind-hippo/a71ev2a/cycle_01/bulkdock/openbind_a71ev2a_c1_scaffold_products.sdf', '/opt/xchem-fragalysis-2/maxwin/openbind-hippo/a71ev2a/cycle_01/bulkdock/openbind_a71ev2a_c1_scaffolds.sdf']

>  <fragmenstein_runtime>  (1120) 
1.735066

$$$$
C2375-P325
     RDKit          3D

 12 12  0  0  0  0  0  0  0  0999 V2000
    7.4516   13.8820   22.7158 C   0  0  0  0  0  0  0  0  0  0  0  0
    8.5901   13.9293   23.4277 C   0  0  0  0  0  0  0  0  0  0  0  0
    9.8361   14.4693   22.7678 C   0  0  0  0  0  0  0  0  0  0  0  0
    8.7600   13.4644   24.8750 C   0  0  2  0  0  0  0  0  0  0  0  0
    9.0631   14.6681   25.7896 C   0  0  0  0  0  0  0  0  0  0  0  0
    9.9053   12.6824   24.9398 F   0  0  0  0  0  0  0  0  0  0  0  0
    7.6434   12.5739   25.5276 C   0  0  1  0  0  0  0  0  0  0  0  0
    6.3397   13.2662   25.9498 C   0  0  0  0  0  0  0  0  0  0  0  0
    5.5671   12.3761   26.9268 C   0  0  0  0  0  0  0  0  0  0  0  0
    5.3886   10.9610   26.3917 C   0  0  0  0  0  0  0  0  0  0  0  0
    6.6712   10.3872   25.7960 C   0  0  0  0  0  0  0  0  0  0  0  0
    7.3357   11.2947   24.8543 N   0  0  0  0  0  0  0  0  0  0  0  0
  1  2  2  0
  2  3  1  0
  2  4  1  0
  4  5  1  1
  4  6  1  0
  4  7  1  0
  7  8  1  6
  8  9  1  0
  9 10  1  0
 10 11  1  0
 11 12  1  0
 12  7  1  0
M  END
>  <ref_pdb>  (1121) 
A4368a

>  <subsites>  (1121) 
1 - Active Site

>  <HIPPO Compound ID>  (1121) 
39173

>  <energy_score>  (1121) 
-27.384237

>  <fragmenstein_mode>  (1121) 
expansion

>  <scratch_subdir>  (1121) 
/opt/xchem-fragalysis-2/maxwin/BulkDock/SCRATCH/512222/C2375-P325

>  <smiles>  (1121) 
C=C(C)[C@](C)(F)[C@H]1CCCCN1

>  <alias>  (1121) 
C2375-P325

>  <ref_mols>  (1121) 
A1779a,A4368a

>  <inspiration_score>  (1121) 
None

>  <tags>  (1121) 
BulkDock Fragalysis export,fragmenstein_placed,openbind_a71ev2a_c1_knitwork_impure,openbind_a71ev2a_c1_scaffolds

>  <fragmenstein_outcome>  (1121) 
acceptable

>  <fragmenstein_error>  (1121) 


>  <distance_score>  (1121) 
0.814396

>  <inchikey>  (1121) 
STBXFODHUIMPAQ-UHFFFAOYSA-N

>  <name>  (1121) 
C2375-P325

>  <HIPPO Pose ID>  (1121) 
475340

>  <Energy>  (1121) 
59.184912

>  <exports>  (1121) 
['/opt/xchem-fragalysis-2/maxwin/BulkDock/OUTPUTS/openbind_a71ev2a_c1_knitwork_impure_165VXJF.sdf', '/opt/xchem-fragalysis-2/maxwin/BulkDock/OUTPUTS/openbind_a71ev2a_c1_knitwork_impure_1B07QS4.sdf', '/opt/xchem-fragalysis-2/maxwin/BulkDock/OUTPUTS/openbind_a71ev2a_c1_knitwork_impure_1B07X5R.sdf', '/opt/xchem-fragalysis-2/maxwin/openbind-hippo/a71ev2a/openbind_a71ev2a_c1_scaffold_products.sdf', '/opt/xchem-fragalysis-2/maxwin/openbind-hippo/a71ev2a/cycle_01/bulkdock/openbind_a71ev2a_c1_scaffold_products.sdf', '/opt/xchem-fragalysis-2/maxwin/openbind-hippo/a71ev2a/cycle_01/bulkdock/openbind_a71ev2a_c1_scaffolds.sdf']

>  <fragmenstein_runtime>  (1121) 
1.261015

$$$$
C2384-P325
     RDKit          3D

 15 15  0  0  0  0  0  0  0  0999 V2000
   11.6842   14.5375   22.5176 C   0  0  0  0  0  0  0  0  0  0  0  0
   10.7581   15.4611   23.2878 C   0  0  0  0  0  0  0  0  0  0  0  0
    9.2581   15.2724   23.0159 C   0  0  1  0  0  0  0  0  0  0  0  0
    8.9529   15.5204   21.5343 C   0  0  0  0  0  0  0  0  0  0  0  0
    8.6405   13.9321   23.4627 C   0  0  0  0  0  0  0  0  0  0  0  0
    8.1636   13.1609   22.6187 O   0  0  0  0  0  0  0  0  0  0  0  0
    8.6273   13.5181   24.9670 C   0  0  0  0  0  0  0  0  0  0  0  0
    8.6895   14.7292   25.9215 C   0  0  0  0  0  0  0  0  0  0  0  0
    9.9221   12.7051   25.1551 C   0  0  0  0  0  0  0  0  0  0  0  0
    7.2946   12.6511   25.2208 C   0  0  2  0  0  0  0  0  0  0  0  0
    6.3831   13.1559   26.3596 C   0  0  0  0  0  0  0  0  0  0  0  0
    5.1225   12.3074   26.4872 C   0  0  0  0  0  0  0  0  0  0  0  0
    5.4490   10.8320   26.6500 C   0  0  0  0  0  0  0  0  0  0  0  0
    6.3453   10.3379   25.6194 N   0  0  0  0  0  0  0  0  0  0  0  0
    7.5469   11.1375   25.4041 C   0  0  0  0  0  0  0  0  0  0  0  0
  1  2  1  0
  2  3  1  0
  3  4  1  6
  3  5  1  0
  5  6  2  0
  5  7  1  0
  7  8  1  0
  7  9  1  0
 10  7  1  1
 10 11  1  0
 11 12  1  0
 12 13  1  0
 13 14  1  0
 14 15  1  0
 15 10  1  0
M  END
>  <ref_pdb>  (1122) 
A4368a

>  <subsites>  (1122) 
1 - Active Site

>  <HIPPO Compound ID>  (1122) 
1192

>  <energy_score>  (1122) 
-48.729741

>  <fragmenstein_mode>  (1122) 
expansion

>  <scratch_subdir>  (1122) 
/opt/xchem-fragalysis-2/maxwin/BulkDock/SCRATCH/512222/C2384-P325

>  <smiles>  (1122) 
CC[C@@H](C)C(=O)C(C)(C)[C@@H]1CCCNC1

>  <alias>  (1122) 
C2384-P325

>  <ref_mols>  (1122) 
A1779a,A4368a

>  <inspiration_score>  (1122) 
None

>  <tags>  (1122) 
BulkDock Fragalysis export,fragmenstein_placed,openbind_a71ev2a_c1_knitwork_impure,openbind_a71ev2a_c1_scaffolds

>  <fragmenstein_outcome>  (1122) 
acceptable

>  <fragmenstein_error>  (1122) 


>  <distance_score>  (1122) 
0.997734

>  <inchikey>  (1122) 
GIKLQBAMNJOQJI-UHFFFAOYSA-N

>  <name>  (1122) 
C2384-P325

>  <HIPPO Pose ID>  (1122) 
475349

>  <Energy>  (1122) 
34.134793

>  <exports>  (1122) 
['/opt/xchem-fragalysis-2/maxwin/BulkDock/OUTPUTS/openbind_a71ev2a_c1_knitwork_impure_165VXJF.sdf', '/opt/xchem-fragalysis-2/maxwin/BulkDock/OUTPUTS/openbind_a71ev2a_c1_knitwork_impure_1B07QS4.sdf', '/opt/xchem-fragalysis-2/maxwin/BulkDock/OUTPUTS/openbind_a71ev2a_c1_knitwork_impure_1B07X5R.sdf', '/opt/xchem-fragalysis-2/maxwin/openbind-hippo/a71ev2a/openbind_a71ev2a_c1_scaffold_products.sdf', '/opt/xchem-fragalysis-2/maxwin/openbind-hippo/a71ev2a/cycle_01/bulkdock/openbind_a71ev2a_c1_scaffold_products.sdf', '/opt/xchem-fragalysis-2/maxwin/openbind-hippo/a71ev2a/cycle_01/bulkdock/openbind_a71ev2a_c1_scaffolds.sdf']

>  <fragmenstein_runtime>  (1122) 
2.244697

$$$$
C2397-P325
     RDKit          3D

 15 15  0  0  0  0  0  0  0  0999 V2000
   11.5603   15.2784   18.9714 C   0  0  0  0  0  0  0  0  0  0  0  0
   10.3735   15.5731   19.8763 C   0  0  0  0  0  0  0  0  0  0  0  0
   10.2212   17.0529   20.1918 C   0  0  0  0  0  0  0  0  0  0  0  0
   10.5112   14.8209   21.1979 C   0  0  0  0  0  0  0  0  0  0  0  0
    9.1871   14.7753   21.9364 C   0  0  0  0  0  0  0  0  0  0  0  0
    9.4033   14.1150   23.1758 O   0  0  0  0  0  0  0  0  0  0  0  0
    8.1715   13.6869   23.7500 C   0  0  0  0  0  0  0  0  0  0  0  0
    8.4406   13.2908   25.1992 C   0  0  1  0  0  0  0  0  0  0  0  0
    8.8445   14.5363   26.0118 C   0  0  0  0  0  0  0  0  0  0  0  0
    7.2588   12.5349   25.8424 C   0  0  1  0  0  0  0  0  0  0  0  0
    5.9417   13.3055   25.9296 C   0  0  0  0  0  0  0  0  0  0  0  0
    4.9846   12.5473   26.8494 C   0  0  0  0  0  0  0  0  0  0  0  0
    4.8174   11.0958   26.4202 C   0  0  0  0  0  0  0  0  0  0  0  0
    6.1272   10.4084   26.0467 C   0  0  0  0  0  0  0  0  0  0  0  0
    7.0324   11.2208   25.2268 N   0  0  0  0  0  0  0  0  0  0  0  0
  1  2  1  0
  2  3  1  0
  2  4  1  0
  4  5  1  0
  5  6  1  0
  6  7  1  0
  7  8  1  0
  8  9  1  1
  8 10  1  0
 10 11  1  6
 11 12  1  0
 12 13  1  0
 13 14  1  0
 14 15  1  0
 15 10  1  0
M  END
>  <ref_pdb>  (1123) 
A4368a

>  <subsites>  (1123) 
1 - Active Site

>  <HIPPO Compound ID>  (1123) 
4096

>  <energy_score>  (1123) 
-36.517026

>  <fragmenstein_mode>  (1123) 
expansion

>  <scratch_subdir>  (1123) 
/opt/xchem-fragalysis-2/maxwin/BulkDock/SCRATCH/512222/C2397-P325

>  <smiles>  (1123) 
CC(C)CCOC[C@@H](C)[C@H]1CCCCN1

>  <alias>  (1123) 
C2397-P325

>  <ref_mols>  (1123) 
A1779a,A4368a

>  <inspiration_score>  (1123) 
None

>  <tags>  (1123) 
BulkDock Fragalysis export,fragmenstein_placed,openbind_a71ev2a_c1_knitwork_impure,openbind_a71ev2a_c1_scaffolds

>  <fragmenstein_outcome>  (1123) 
acceptable

>  <fragmenstein_error>  (1123) 


>  <distance_score>  (1123) 
0.919968

>  <inchikey>  (1123) 
ALNNKLRFJSRBFH-UHFFFAOYSA-N

>  <name>  (1123) 
C2397-P325

>  <HIPPO Pose ID>  (1123) 
475357

>  <Energy>  (1123) 
16.938843

>  <exports>  (1123) 
['/opt/xchem-fragalysis-2/maxwin/BulkDock/OUTPUTS/openbind_a71ev2a_c1_knitwork_impure_165VXJF.sdf', '/opt/xchem-fragalysis-2/maxwin/BulkDock/OUTPUTS/openbind_a71ev2a_c1_knitwork_impure_1B07QS4.sdf', '/opt/xchem-fragalysis-2/maxwin/BulkDock/OUTPUTS/openbind_a71ev2a_c1_knitwork_impure_1B07X5R.sdf', '/opt/xchem-fragalysis-2/maxwin/openbind-hippo/a71ev2a/openbind_a71ev2a_c1_scaffold_products.sdf', '/opt/xchem-fragalysis-2/maxwin/openbind-hippo/a71ev2a/cycle_01/bulkdock/openbind_a71ev2a_c1_scaffold_products.sdf', '/opt/xchem-fragalysis-2/maxwin/openbind-hippo/a71ev2a/cycle_01/bulkdock/openbind_a71ev2a_c1_scaffolds.sdf']

>  <fragmenstein_runtime>  (1123) 
3.791845

$$$$
C2399-P325
     RDKit          3D

 15 15  0  0  0  0  0  0  0  0999 V2000
    7.5605   14.1357   22.5734 C   0  0  0  0  0  0  0  0  0  0  0  0
    8.5490   14.1773   23.4945 C   0  0  0  0  0  0  0  0  0  0  0  0
    9.8038   14.9476   23.1649 C   0  0  0  0  0  0  0  0  0  0  0  0
   10.9400   14.3476   23.5896 F   0  0  0  0  0  0  0  0  0  0  0  0
    9.9441   15.1649   21.8312 F   0  0  0  0  0  0  0  0  0  0  0  0
    9.7810   16.1720   23.7521 F   0  0  0  0  0  0  0  0  0  0  0  0
    8.5263   13.5562   24.9029 C   0  0  2  0  0  0  0  0  0  0  0  0
    8.7352   14.6548   25.9640 C   0  0  0  0  0  0  0  0  0  0  0  0
    9.6345   12.7448   25.0273 F   0  0  0  0  0  0  0  0  0  0  0  0
    7.2685   12.6461   25.1978 C   0  0  2  0  0  0  0  0  0  0  0  0
    6.3249   13.1546   26.3010 C   0  0  0  0  0  0  0  0  0  0  0  0
    5.1183   12.2344   26.4559 C   0  0  0  0  0  0  0  0  0  0  0  0
    5.5267   10.7781   26.6371 C   0  0  0  0  0  0  0  0  0  0  0  0
    6.4889   10.3182   25.6452 N   0  0  0  0  0  0  0  0  0  0  0  0
    7.6530   11.1833   25.4628 C   0  0  0  0  0  0  0  0  0  0  0  0
  1  2  2  0
  2  3  1  0
  3  4  1  0
  3  5  1  0
  3  6  1  0
  2  7  1  0
  7  8  1  1
  7  9  1  0
  7 10  1  0
 10 11  1  1
 11 12  1  0
 12 13  1  0
 13 14  1  0
 14 15  1  0
 15 10  1  0
M  END
>  <ref_pdb>  (1124) 
A4368a

>  <subsites>  (1124) 
1 - Active Site

>  <HIPPO Compound ID>  (1124) 
1392

>  <energy_score>  (1124) 
-28.199002

>  <fragmenstein_mode>  (1124) 
expansion

>  <scratch_subdir>  (1124) 
/opt/xchem-fragalysis-2/maxwin/BulkDock/SCRATCH/512222/C2399-P325

>  <smiles>  (1124) 
C=C(C(F)(F)F)[C@](C)(F)[C@@H]1CCCNC1

>  <alias>  (1124) 
C2399-P325

>  <ref_mols>  (1124) 
A1779a,A4368a

>  <inspiration_score>  (1124) 
None

>  <tags>  (1124) 
BulkDock Fragalysis export,fragmenstein_placed,openbind_a71ev2a_c1_knitwork_impure,openbind_a71ev2a_c1_scaffolds

>  <fragmenstein_outcome>  (1124) 
acceptable

>  <fragmenstein_error>  (1124) 


>  <distance_score>  (1124) 
0.941705

>  <inchikey>  (1124) 
OLRBJBOVACWGSV-UHFFFAOYSA-N

>  <name>  (1124) 
C2399-P325

>  <HIPPO Pose ID>  (1124) 
475358

>  <Energy>  (1124) 
23.307648

>  <exports>  (1124) 
['/opt/xchem-fragalysis-2/maxwin/BulkDock/OUTPUTS/openbind_a71ev2a_c1_knitwork_impure_165VXJF.sdf', '/opt/xchem-fragalysis-2/maxwin/BulkDock/OUTPUTS/openbind_a71ev2a_c1_knitwork_impure_1B07QS4.sdf', '/opt/xchem-fragalysis-2/maxwin/BulkDock/OUTPUTS/openbind_a71ev2a_c1_knitwork_impure_1B07X5R.sdf', '/opt/xchem-fragalysis-2/maxwin/openbind-hippo/a71ev2a/openbind_a71ev2a_c1_scaffold_products.sdf', '/opt/xchem-fragalysis-2/maxwin/openbind-hippo/a71ev2a/cycle_01/bulkdock/openbind_a71ev2a_c1_scaffold_products.sdf', '/opt/xchem-fragalysis-2/maxwin/openbind-hippo/a71ev2a/cycle_01/bulkdock/openbind_a71ev2a_c1_scaffolds.sdf']

>  <fragmenstein_runtime>  (1124) 
5.45023

$$$$
C2410-P325
     RDKit          3D

 14 14  0  0  0  0  0  0  0  0999 V2000
   11.9236   15.4988   22.3341 C   0  0  0  0  0  0  0  0  0  0  0  0
   11.0810   14.7772   23.3611 C   0  0  0  0  0  0  0  0  0  0  0  0
   11.7859   13.6967   23.7984 F   0  0  0  0  0  0  0  0  0  0  0  0
   10.9044   15.5819   24.4356 F   0  0  0  0  0  0  0  0  0  0  0  0
    9.7449   14.3336   22.7779 C   0  0  0  0  0  0  0  0  0  0  0  0
    9.0401   13.2420   23.5849 C   0  0  0  0  0  0  0  0  0  0  0  0
    8.2044   13.7550   24.7478 C   0  0  2  0  0  0  0  0  0  0  0  0
    9.0224   14.4105   25.6317 F   0  0  0  0  0  0  0  0  0  0  0  0
    7.5065   12.6435   25.5663 C   0  0  1  0  0  0  0  0  0  0  0  0
    6.2992   13.2645   26.2907 C   0  0  0  0  0  0  0  0  0  0  0  0
    5.6175   12.2897   27.2405 C   0  0  0  0  0  0  0  0  0  0  0  0
    5.3430   10.9571   26.5639 C   0  0  0  0  0  0  0  0  0  0  0  0
    6.5735   10.4357   25.8368 C   0  0  0  0  0  0  0  0  0  0  0  0
    7.1170   11.4054   24.8785 N   0  0  0  0  0  0  0  0  0  0  0  0
  1  2  1  0
  2  3  1  0
  2  4  1  0
  2  5  1  0
  5  6  1  0
  6  7  1  0
  7  8  1  1
  7  9  1  0
  9 10  1  6
 10 11  1  0
 11 12  1  0
 12 13  1  0
 13 14  1  0
 14  9  1  0
M  END
>  <ref_pdb>  (1125) 
A4368a

>  <subsites>  (1125) 
1 - Active Site

>  <HIPPO Compound ID>  (1125) 
10571

>  <energy_score>  (1125) 
-40.34627

>  <fragmenstein_mode>  (1125) 
expansion

>  <scratch_subdir>  (1125) 
/opt/xchem-fragalysis-2/maxwin/BulkDock/SCRATCH/512222/C2410-P325

>  <smiles>  (1125) 
CC(F)(F)CC[C@H](F)[C@H]1CCCCN1

>  <alias>  (1125) 
C2410-P325

>  <ref_mols>  (1125) 
A1779a,A4368a

>  <inspiration_score>  (1125) 
None

>  <tags>  (1125) 
BulkDock Fragalysis export,fragmenstein_placed,openbind_a71ev2a_c1_knitwork_impure,openbind_a71ev2a_c1_scaffolds

>  <fragmenstein_outcome>  (1125) 
acceptable

>  <fragmenstein_error>  (1125) 


>  <distance_score>  (1125) 
0.952553

>  <inchikey>  (1125) 
GEZPFGWIPNSGAO-UHFFFAOYSA-N

>  <name>  (1125) 
C2410-P325

>  <HIPPO Pose ID>  (1125) 
475365

>  <Energy>  (1125) 
32.296275

>  <exports>  (1125) 
['/opt/xchem-fragalysis-2/maxwin/BulkDock/OUTPUTS/openbind_a71ev2a_c1_knitwork_impure_165VXJF.sdf', '/opt/xchem-fragalysis-2/maxwin/BulkDock/OUTPUTS/openbind_a71ev2a_c1_knitwork_impure_1B07QS4.sdf', '/opt/xchem-fragalysis-2/maxwin/BulkDock/OUTPUTS/openbind_a71ev2a_c1_knitwork_impure_1B07X5R.sdf', '/opt/xchem-fragalysis-2/maxwin/openbind-hippo/a71ev2a/openbind_a71ev2a_c1_scaffold_products.sdf', '/opt/xchem-fragalysis-2/maxwin/openbind-hippo/a71ev2a/cycle_01/bulkdock/openbind_a71ev2a_c1_scaffold_products.sdf', '/opt/xchem-fragalysis-2/maxwin/openbind-hippo/a71ev2a/cycle_01/bulkdock/openbind_a71ev2a_c1_scaffolds.sdf']

>  <fragmenstein_runtime>  (1125) 
1.303993

$$$$
C736-P338
     RDKit          3D

 12 13  0  0  0  0  0  0  0  0999 V2000
    8.4928   10.6603   24.6809 C   0  0  0  0  0  0  0  0  0  0  0  0
    9.4223   10.8762   23.6802 C   0  0  0  0  0  0  0  0  0  0  0  0
    9.7367   12.1859   23.3107 C   0  0  0  0  0  0  0  0  0  0  0  0
    9.1217   13.2602   23.9453 C   0  0  0  0  0  0  0  0  0  0  0  0
    9.3720   14.5763   23.5957 N   0  0  0  0  0  0  0  0  0  0  0  0
   10.6536   15.1282   24.0158 C   0  0  0  0  0  0  0  0  0  0  0  0
   11.6910   15.0506   22.9007 C   0  0  0  0  0  0  0  0  0  0  0  0
   11.1769   15.6954   21.6202 C   0  0  0  0  0  0  0  0  0  0  0  0
    9.8525   15.0673   21.2009 C   0  0  0  0  0  0  0  0  0  0  0  0
    8.8237   15.0782   22.3314 C   0  0  0  0  0  0  0  0  0  0  0  0
    8.2344   13.0461   24.9398 N   0  0  0  0  0  0  0  0  0  0  0  0
    7.9271   11.7716   25.2718 C   0  0  0  0  0  0  0  0  0  0  0  0
  1  2  2  0
  2  3  1  0
  3  4  2  0
  4  5  1  0
  5  6  1  0
  6  7  1  0
  7  8  1  0
  8  9  1  0
  9 10  1  0
  4 11  1  0
 11 12  2  0
 12  1  1  0
 10  5  1  0
M  END
>  <ref_pdb>  (1126) 
A4237a

>  <subsites>  (1126) 
1 - Active Site

>  <HIPPO Compound ID>  (1126) 
736

>  <energy_score>  (1126) 
-11.039301

>  <fragmenstein_mode>  (1126) 
expansion

>  <scratch_subdir>  (1126) 
/opt/xchem-fragalysis-2/maxwin/BulkDock/SCRATCH/512222/C736-P338

>  <smiles>  (1126) 
c1ccc(N2CCCCC2)nc1

>  <alias>  (1126) 
C736-P338

>  <ref_mols>  (1126) 
A4237a,A2629a

>  <inspiration_score>  (1126) 
None

>  <tags>  (1126) 
BulkDock Fragalysis export,fragmenstein_placed,openbind_a71ev2a_c1_knitwork_impure,openbind_a71ev2a_c1_scaffolds

>  <fragmenstein_outcome>  (1126) 
acceptable

>  <fragmenstein_error>  (1126) 


>  <distance_score>  (1126) 
0.938856

>  <inchikey>  (1126) 
AJEUJXWLOADTKA-UHFFFAOYSA-N

>  <name>  (1126) 
C736-P338

>  <HIPPO Pose ID>  (1126) 
475868

>  <Energy>  (1126) 
-4.722632

>  <exports>  (1126) 
['/opt/xchem-fragalysis-2/maxwin/BulkDock/OUTPUTS/openbind_a71ev2a_c1_knitwork_impure_165VXJF.sdf', '/opt/xchem-fragalysis-2/maxwin/BulkDock/OUTPUTS/openbind_a71ev2a_c1_knitwork_impure_1B07QS4.sdf', '/opt/xchem-fragalysis-2/maxwin/BulkDock/OUTPUTS/openbind_a71ev2a_c1_knitwork_impure_1B07X5R.sdf', '/opt/xchem-fragalysis-2/maxwin/openbind-hippo/a71ev2a/openbind_a71ev2a_c1_scaffold_products.sdf', '/opt/xchem-fragalysis-2/maxwin/openbind-hippo/a71ev2a/cycle_01/bulkdock/openbind_a71ev2a_c1_scaffold_products.sdf', '/opt/xchem-fragalysis-2/maxwin/openbind-hippo/a71ev2a/cycle_01/bulkdock/openbind_a71ev2a_c1_scaffolds.sdf']

>  <fragmenstein_runtime>  (1126) 
9.507248

$$$$
C727-P338
     RDKit          3D

 12 13  0  0  0  0  0  0  0  0999 V2000
    9.3714   10.9089   23.8216 C   0  0  0  0  0  0  0  0  0  0  0  0
    9.7322   12.1883   23.4131 C   0  0  0  0  0  0  0  0  0  0  0  0
    9.0556   13.2872   23.9349 C   0  0  0  0  0  0  0  0  0  0  0  0
    9.3345   14.6083   23.5914 N   0  0  0  0  0  0  0  0  0  0  0  0
   10.6461   15.1369   23.9752 C   0  0  0  0  0  0  0  0  0  0  0  0
   11.6651   15.0410   22.8459 C   0  0  0  0  0  0  0  0  0  0  0  0
   11.1368   15.6653   21.5622 C   0  0  0  0  0  0  0  0  0  0  0  0
    9.8000   15.0413   21.1802 C   0  0  0  0  0  0  0  0  0  0  0  0
    8.7870   15.1162   22.3207 C   0  0  0  0  0  0  0  0  0  0  0  0
    8.0321   13.0320   24.8490 C   0  0  0  0  0  0  0  0  0  0  0  0
    7.7344   11.7216   25.1944 C   0  0  0  0  0  0  0  0  0  0  0  0
    8.3873   10.6481   24.7069 N   0  0  0  0  0  0  0  0  0  0  0  0
  1  2  2  0
  2  3  1  0
  3  4  1  0
  4  5  1  0
  5  6  1  0
  6  7  1  0
  7  8  1  0
  8  9  1  0
  3 10  2  0
 10 11  1  0
 11 12  2  0
 12  1  1  0
  9  4  1  0
M  END
>  <ref_pdb>  (1127) 
A4237a

>  <subsites>  (1127) 
1 - Active Site

>  <HIPPO Compound ID>  (1127) 
34673

>  <energy_score>  (1127) 
-12.095839

>  <fragmenstein_mode>  (1127) 
expansion

>  <scratch_subdir>  (1127) 
/opt/xchem-fragalysis-2/maxwin/BulkDock/SCRATCH/512222/C727-P338

>  <smiles>  (1127) 
c1cc(N2CCCCC2)ccn1

>  <alias>  (1127) 
C727-P338

>  <ref_mols>  (1127) 
A4237a,A2629a

>  <inspiration_score>  (1127) 
None

>  <tags>  (1127) 
BulkDock Fragalysis export,fragmenstein_placed,openbind_a71ev2a_c1_knitwork_impure,openbind_a71ev2a_c1_scaffolds

>  <fragmenstein_outcome>  (1127) 
acceptable

>  <fragmenstein_error>  (1127) 


>  <distance_score>  (1127) 
0.922935

>  <inchikey>  (1127) 
XHJOMYXOFNVJDG-UHFFFAOYSA-N

>  <name>  (1127) 
C727-P338

>  <HIPPO Pose ID>  (1127) 
475877

>  <Energy>  (1127) 
18.268019

>  <exports>  (1127) 
['/opt/xchem-fragalysis-2/maxwin/BulkDock/OUTPUTS/openbind_a71ev2a_c1_knitwork_impure_165VXJF.sdf', '/opt/xchem-fragalysis-2/maxwin/BulkDock/OUTPUTS/openbind_a71ev2a_c1_knitwork_impure_1B07QS4.sdf', '/opt/xchem-fragalysis-2/maxwin/BulkDock/OUTPUTS/openbind_a71ev2a_c1_knitwork_impure_1B07X5R.sdf', '/opt/xchem-fragalysis-2/maxwin/openbind-hippo/a71ev2a/openbind_a71ev2a_c1_scaffold_products.sdf', '/opt/xchem-fragalysis-2/maxwin/openbind-hippo/a71ev2a/cycle_01/bulkdock/openbind_a71ev2a_c1_scaffold_products.sdf', '/opt/xchem-fragalysis-2/maxwin/openbind-hippo/a71ev2a/cycle_01/bulkdock/openbind_a71ev2a_c1_scaffolds.sdf']

>  <fragmenstein_runtime>  (1127) 
9.928341

$$$$
C10375-P495
     RDKit          3D

 21 24  0  0  0  0  0  0  0  0999 V2000
   19.9080   -2.8309   27.6243 C   0  0  0  0  0  0  0  0  0  0  0  0
   21.0576   -2.0986   27.9279 C   0  0  0  0  0  0  0  0  0  0  0  0
   21.7028   -1.3665   26.9328 C   0  0  0  0  0  0  0  0  0  0  0  0
   22.8281   -0.6064   27.0871 O   0  0  0  0  0  0  0  0  0  0  0  0
   23.4662   -0.5758   28.3663 C   0  0  0  0  0  0  0  0  0  0  0  0
   24.8733   -0.0112   28.1716 C   0  0  0  0  0  0  0  0  0  0  0  0
   24.6743    1.4983   28.0548 C   0  0  0  0  0  0  0  0  0  0  0  0
   23.3494    1.8055   28.7501 C   0  0  0  0  0  0  0  0  0  0  0  0
   22.8314    0.4704   29.2795 C   0  0  0  0  0  0  0  0  0  0  0  0
   21.1814   -1.3666   25.6338 C   0  0  0  0  0  0  0  0  0  0  0  0
   20.0204   -2.0858   25.3162 C   0  0  0  0  0  0  0  0  0  0  0  0
   19.4460   -2.0633   23.9540 C   0  0  0  0  0  0  0  0  0  0  0  0
   19.0337   -3.2781   23.2333 C   0  0  0  0  0  0  0  0  0  0  0  0
   18.4343   -3.2334   22.0268 C   0  0  0  0  0  0  0  0  0  0  0  0
   18.1914   -1.9762   21.4158 C   0  0  0  0  0  0  0  0  0  0  0  0
   17.6011   -1.6164   20.2959 N   0  0  0  0  0  0  0  0  0  0  0  0
   17.6465   -0.2412   20.2204 N   0  0  0  0  0  0  0  0  0  0  0  0
   18.2717    0.1996   21.2910 C   0  0  0  0  0  0  0  0  0  0  0  0
   18.6208   -0.8490   22.0946 N   0  0  0  0  0  0  0  0  0  0  0  0
   19.2334   -0.8765   23.3427 C   0  0  0  0  0  0  0  0  0  0  0  0
   19.3947   -2.8267   26.3268 C   0  0  0  0  0  0  0  0  0  0  0  0
  1  2  2  0
  2  3  1  0
  3  4  1  0
  4  5  1  0
  5  6  1  0
  6  7  1  0
  7  8  1  0
  8  9  1  0
  3 10  2  0
 10 11  1  0
 11 12  1  0
 12 13  1  0
 13 14  2  0
 14 15  1  0
 15 16  2  0
 16 17  1  0
 17 18  2  0
 18 19  1  0
 19 20  1  0
 11 21  2  0
 21  1  1  0
  9  5  1  0
 20 12  2  0
 19 15  1  0
M  END
>  <ref_pdb>  (1128) 
A4874b

>  <subsites>  (1128) 
1 - Active Site,2 - A3977/A/202/1

>  <HIPPO Compound ID>  (1128) 
1413

>  <energy_score>  (1128) 
-32.397414

>  <fragmenstein_mode>  (1128) 
expansion

>  <scratch_subdir>  (1128) 
/opt/xchem-fragalysis-2/maxwin/BulkDock/SCRATCH/512222/C10375-P495

>  <smiles>  (1128) 
c1cc(OC2CCCC2)cc(-c2ccc3nncn3c2)c1

>  <alias>  (1128) 
C10375-P495

>  <ref_mols>  (1128) 
A1293a,A4874b

>  <inspiration_score>  (1128) 
None

>  <tags>  (1128) 
BulkDock Fragalysis export,fragmenstein_placed,openbind_a71ev2a_c1_knitwork_impure,openbind_a71ev2a_c1_scaffolds

>  <fragmenstein_outcome>  (1128) 
acceptable

>  <fragmenstein_error>  (1128) 


>  <distance_score>  (1128) 
0.204832

>  <inchikey>  (1128) 
DXSIWZMPELQDJX-UHFFFAOYSA-N

>  <name>  (1128) 
C10375-P495

>  <HIPPO Pose ID>  (1128) 
476254

>  <Energy>  (1128) 
50.047646

>  <exports>  (1128) 
['/opt/xchem-fragalysis-2/maxwin/BulkDock/OUTPUTS/openbind_a71ev2a_c1_knitwork_impure_165VXJF.sdf', '/opt/xchem-fragalysis-2/maxwin/BulkDock/OUTPUTS/openbind_a71ev2a_c1_knitwork_impure_1B07QS4.sdf', '/opt/xchem-fragalysis-2/maxwin/BulkDock/OUTPUTS/openbind_a71ev2a_c1_knitwork_impure_1B07X5R.sdf', '/opt/xchem-fragalysis-2/maxwin/openbind-hippo/a71ev2a/openbind_a71ev2a_c1_scaffold_products.sdf', '/opt/xchem-fragalysis-2/maxwin/openbind-hippo/a71ev2a/cycle_01/bulkdock/openbind_a71ev2a_c1_scaffold_products.sdf', '/opt/xchem-fragalysis-2/maxwin/openbind-hippo/a71ev2a/cycle_01/bulkdock/openbind_a71ev2a_c1_scaffolds.sdf']

>  <fragmenstein_runtime>  (1128) 
17.179987

$$$$
C87424-P143
     RDKit          3D

 13 13  0  0  0  0  0  0  0  0999 V2000
    5.9001   16.0998   21.9014 N   0  0  0  0  0  0  0  0  0  0  0  0
    7.0714   15.0626   22.4879 S   0  0  0  0  0  0  0  0  0  0  0  0
    8.3472   15.6636   22.1955 O   0  0  0  0  0  0  0  0  0  0  0  0
    6.7141   13.7655   21.9499 O   0  0  0  0  0  0  0  0  0  0  0  0
    6.7118   15.2107   24.2459 C   0  0  0  0  0  0  0  0  0  0  0  0
    7.6040   14.3181   25.0902 C   0  0  0  0  0  0  0  0  0  0  0  0
    7.1189   12.8738   24.9700 C   0  0  0  0  0  0  0  0  0  0  0  0
    8.1350   11.8483   25.1737 N   0  0  0  0  0  0  0  0  0  0  0  0
    7.5995   10.5216   24.8131 C   0  0  0  0  0  0  0  0  0  0  0  0
    8.3893    9.5986   23.8952 C   0  0  0  0  0  0  0  0  0  0  0  0
    9.5293   10.2565   23.1630 C   0  0  0  0  0  0  0  0  0  0  0  0
    9.3456   11.7496   23.0982 C   0  0  0  0  0  0  0  0  0  0  0  0
    9.3074   12.2688   24.4138 O   0  0  0  0  0  0  0  0  0  0  0  0
  1  2  1  0
  2  3  2  0
  2  4  2  0
  2  5  1  0
  5  6  1  0
  6  7  1  0
  7  8  1  0
  8  9  1  0
  9 10  1  0
 10 11  1  0
 11 12  1  0
 12 13  1  0
 13  8  1  0
M  END
>  <ref_pdb>  (1129) 
A3178a

>  <subsites>  (1129) 
1 - Active Site

>  <HIPPO Compound ID>  (1129) 
29426

>  <energy_score>  (1129) 
-24.31005

>  <fragmenstein_mode>  (1129) 
expansion

>  <scratch_subdir>  (1129) 
/opt/xchem-fragalysis-2/maxwin/BulkDock/SCRATCH/512222/C87424-P143

>  <smiles>  (1129) 
NS(=O)(=O)CCCN1CCCCO1

>  <alias>  (1129) 
C87424-P143

>  <ref_mols>  (1129) 
A0719a,A3178a

>  <inspiration_score>  (1129) 
None

>  <tags>  (1129) 
BulkDock Fragalysis export,fragmenstein_placed,openbind_a71ev2a_c1_knitwork_impure,openbind_a71ev2a_c1_scaffolds

>  <fragmenstein_outcome>  (1129) 
acceptable

>  <fragmenstein_error>  (1129) 


>  <distance_score>  (1129) 
0.97064

>  <inchikey>  (1129) 
PSEWAHCXXIBCFD-UHFFFAOYSA-N

>  <name>  (1129) 
C87424-P143

>  <HIPPO Pose ID>  (1129) 
476601

>  <Energy>  (1129) 
-58.49829

>  <exports>  (1129) 
['/opt/xchem-fragalysis-2/maxwin/BulkDock/OUTPUTS/openbind_a71ev2a_c1_knitwork_impure_165VXJF.sdf', '/opt/xchem-fragalysis-2/maxwin/BulkDock/OUTPUTS/openbind_a71ev2a_c1_knitwork_impure_1B07QS4.sdf', '/opt/xchem-fragalysis-2/maxwin/BulkDock/OUTPUTS/openbind_a71ev2a_c1_knitwork_impure_1B07X5R.sdf', '/opt/xchem-fragalysis-2/maxwin/openbind-hippo/a71ev2a/openbind_a71ev2a_c1_scaffold_products.sdf', '/opt/xchem-fragalysis-2/maxwin/openbind-hippo/a71ev2a/cycle_01/bulkdock/openbind_a71ev2a_c1_scaffold_products.sdf', '/opt/xchem-fragalysis-2/maxwin/openbind-hippo/a71ev2a/cycle_01/bulkdock/openbind_a71ev2a_c1_scaffolds.sdf']

>  <fragmenstein_runtime>  (1129) 
2.014564

$$$$
C87425-P143
     RDKit          3D

 13 13  0  0  0  0  0  0  0  0999 V2000
    9.0618    9.1757   23.3693 C   0  0  0  0  0  0  0  0  0  0  0  0
    8.6133   10.5515   23.8360 C   0  0  0  0  0  0  0  0  0  0  0  0
    9.6050   11.6002   23.3810 C   0  0  0  0  0  0  0  0  0  0  0  0
    9.3530   13.2345   24.0270 S   0  0  0  0  0  0  0  0  0  0  0  0
   10.5353   13.6086   24.7769 O   0  0  0  0  0  0  0  0  0  0  0  0
    8.0442   13.2920   24.6399 O   0  0  0  0  0  0  0  0  0  0  0  0
    9.2509   14.1386   22.5677 N   0  0  0  0  0  0  0  0  0  0  0  0
   10.3780   14.9935   22.3959 N   0  0  0  0  0  0  0  0  0  0  0  0
   11.5820   14.2815   21.8981 C   0  0  0  0  0  0  0  0  0  0  0  0
   12.1861   14.8311   20.5939 C   0  0  0  0  0  0  0  0  0  0  0  0
   11.2187   15.0209   19.5675 O   0  0  0  0  0  0  0  0  0  0  0  0
   10.0737   15.7411   20.0112 C   0  0  0  0  0  0  0  0  0  0  0  0
   10.0816   16.1181   21.4899 C   0  0  0  0  0  0  0  0  0  0  0  0
  1  2  1  0
  2  3  1  0
  3  4  1  0
  4  5  2  0
  4  6  2  0
  4  7  1  0
  7  8  1  0
  8  9  1  0
  9 10  1  0
 10 11  1  0
 11 12  1  0
 12 13  1  0
 13  8  1  0
M  END
>  <ref_pdb>  (1130) 
A3178a

>  <subsites>  (1130) 
1 - Active Site

>  <HIPPO Compound ID>  (1130) 
10567

>  <energy_score>  (1130) 
-49.446657

>  <fragmenstein_mode>  (1130) 
expansion

>  <scratch_subdir>  (1130) 
/opt/xchem-fragalysis-2/maxwin/BulkDock/SCRATCH/512222/C87425-P143

>  <smiles>  (1130) 
CCCS(=O)(=O)NN1CCOCC1

>  <alias>  (1130) 
C87425-P143

>  <ref_mols>  (1130) 
A0719a,A3178a

>  <inspiration_score>  (1130) 
None

>  <tags>  (1130) 
BulkDock Fragalysis export,fragmenstein_placed,openbind_a71ev2a_c1_knitwork_impure,openbind_a71ev2a_c1_scaffolds

>  <fragmenstein_outcome>  (1130) 
acceptable

>  <fragmenstein_error>  (1130) 


>  <distance_score>  (1130) 
0.751337

>  <inchikey>  (1130) 
KRIKUQAZPILDPI-UHFFFAOYSA-N

>  <name>  (1130) 
C87425-P143

>  <HIPPO Pose ID>  (1130) 
476603

>  <Energy>  (1130) 
88.202606

>  <exports>  (1130) 
['/opt/xchem-fragalysis-2/maxwin/BulkDock/OUTPUTS/openbind_a71ev2a_c1_knitwork_impure_165VXJF.sdf', '/opt/xchem-fragalysis-2/maxwin/BulkDock/OUTPUTS/openbind_a71ev2a_c1_knitwork_impure_1B07QS4.sdf', '/opt/xchem-fragalysis-2/maxwin/BulkDock/OUTPUTS/openbind_a71ev2a_c1_knitwork_impure_1B07X5R.sdf', '/opt/xchem-fragalysis-2/maxwin/openbind-hippo/a71ev2a/openbind_a71ev2a_c1_scaffold_products.sdf', '/opt/xchem-fragalysis-2/maxwin/openbind-hippo/a71ev2a/cycle_01/bulkdock/openbind_a71ev2a_c1_scaffold_products.sdf', '/opt/xchem-fragalysis-2/maxwin/openbind-hippo/a71ev2a/cycle_01/bulkdock/openbind_a71ev2a_c1_scaffolds.sdf']

>  <fragmenstein_runtime>  (1130) 
1.839992

$$$$
C7479-P289
     RDKit          3D

 23 24  0  0  0  0  0  0  0  0999 V2000
    3.6617   12.3925   17.9366 C   0  0  0  0  0  0  0  0  0  0  0  0
    3.4857   12.4234   19.4488 C   0  0  0  0  0  0  0  0  0  0  0  0
    2.4770   11.3704   19.8916 C   0  0  0  0  0  0  0  0  0  0  0  0
    3.0758   13.7678   19.8901 C   0  0  0  0  0  0  0  0  0  0  0  0
    2.0478   14.3277   19.1910 O   0  0  0  0  0  0  0  0  0  0  0  0
    1.9049   15.5451   19.7474 C   0  0  0  0  0  0  0  0  0  0  0  0
    2.7321   15.8043   20.7409 N   0  0  0  0  0  0  0  0  0  0  0  0
    3.4710   14.6516   20.8773 C   0  0  0  0  0  0  0  0  0  0  0  0
    4.4651   14.4588   21.9797 C   0  0  0  0  0  0  0  0  0  0  0  0
    5.6022   15.3544   21.8437 N   0  0  0  0  0  0  0  0  0  0  0  0
    7.1074   14.7611   22.2955 S   0  0  0  0  0  0  0  0  0  0  0  0
    7.1199   13.4155   21.7356 O   0  0  0  0  0  0  0  0  0  0  0  0
    8.0100   15.6919   21.6516 O   0  0  0  0  0  0  0  0  0  0  0  0
    6.9377   14.8339   23.8178 N   0  0  0  0  0  0  0  0  0  0  0  0
    8.2583   14.5476   24.5486 S   0  0  2  0  0  0  0  0  0  0  0  0
    8.0392   15.2037   26.1908 C   0  0  0  0  0  0  0  0  0  0  0  0
    9.5566   15.0275   24.1219 O   0  0  0  0  0  0  0  0  0  0  0  0
    8.4656   12.7935   24.8957 C   0  0  0  0  0  0  0  0  0  0  0  0
    9.3813   12.1045   23.8795 C   0  0  0  0  0  0  0  0  0  0  0  0
    9.6203   10.6445   24.2441 C   0  0  0  0  0  0  0  0  0  0  0  0
    8.3322    9.8762   24.4680 C   0  0  0  0  0  0  0  0  0  0  0  0
    7.3594   10.5853   25.3996 C   0  0  0  0  0  0  0  0  0  0  0  0
    7.1439   12.0499   25.0417 C   0  0  0  0  0  0  0  0  0  0  0  0
  1  2  1  0
  2  3  1  0
  2  4  1  0
  4  5  1  0
  5  6  1  0
  6  7  2  0
  7  8  1  0
  8  9  1  0
  9 10  1  0
 10 11  1  0
 11 12  2  0
 11 13  2  0
 11 14  1  0
 14 15  2  0
 15 16  1  1
 15 17  2  0
 15 18  1  0
 18 19  1  0
 19 20  1  0
 20 21  1  0
 21 22  1  0
 22 23  1  0
  8  4  2  0
 23 18  1  0
M  END
>  <ref_pdb>  (1131) 
A4305a

>  <subsites>  (1131) 
1 - Active Site

>  <HIPPO Compound ID>  (1131) 
4106

>  <energy_score>  (1131) 
-242.428977

>  <fragmenstein_mode>  (1131) 
expansion

>  <scratch_subdir>  (1131) 
/opt/xchem-fragalysis-2/maxwin/BulkDock/SCRATCH/512222/C7479-P289

>  <smiles>  (1131) 
CC(C)c1ocnc1CNS(=O)(=O)N=[S@](C)(=O)C1CCCCC1

>  <alias>  (1131) 
C7479-P289

>  <ref_mols>  (1131) 
A3623a,A4305a

>  <inspiration_score>  (1131) 
None

>  <tags>  (1131) 
BulkDock Fragalysis export,fragmenstein_placed,openbind_a71ev2a_c1_knitwork_impure,openbind_a71ev2a_c1_scaffolds

>  <fragmenstein_outcome>  (1131) 
acceptable

>  <fragmenstein_error>  (1131) 


>  <distance_score>  (1131) 
0.855147

>  <inchikey>  (1131) 
UZZGPWHIXVWDFZ-UHFFFAOYSA-N

>  <name>  (1131) 
C7479-P289

>  <HIPPO Pose ID>  (1131) 
476976

>  <Energy>  (1131) 
-245.983244

>  <exports>  (1131) 
['/opt/xchem-fragalysis-2/maxwin/BulkDock/OUTPUTS/openbind_a71ev2a_c1_knitwork_impure_165VXJF.sdf', '/opt/xchem-fragalysis-2/maxwin/BulkDock/OUTPUTS/openbind_a71ev2a_c1_knitwork_impure_1B07QS4.sdf', '/opt/xchem-fragalysis-2/maxwin/BulkDock/OUTPUTS/openbind_a71ev2a_c1_knitwork_impure_1B07X5R.sdf', '/opt/xchem-fragalysis-2/maxwin/openbind-hippo/a71ev2a/openbind_a71ev2a_c1_scaffold_products.sdf', '/opt/xchem-fragalysis-2/maxwin/openbind-hippo/a71ev2a/cycle_01/bulkdock/openbind_a71ev2a_c1_scaffold_products.sdf', '/opt/xchem-fragalysis-2/maxwin/openbind-hippo/a71ev2a/cycle_01/bulkdock/openbind_a71ev2a_c1_scaffolds.sdf']

>  <fragmenstein_runtime>  (1131) 
4.834951

$$$$
C7672-P439
     RDKit          3D

 13 13  0  0  0  0  0  0  0  0999 V2000
   11.4825   15.0087   21.2987 C   0  0  0  0  0  0  0  0  0  0  0  0
   11.2173   14.2407   22.5858 C   0  0  0  0  0  0  0  0  0  0  0  0
   10.2537   14.9844   23.4850 C   0  0  0  0  0  0  0  0  0  0  0  0
    8.5331   14.6737   23.1271 S   0  0  0  0  0  0  0  0  0  0  0  0
    8.3259   14.4521   21.7173 O   0  0  0  0  0  0  0  0  0  0  0  0
    7.7267   15.5835   23.9060 O   0  0  0  0  0  0  0  0  0  0  0  0
    8.3442   13.1599   23.8560 N   0  0  0  0  0  0  0  0  0  0  0  0
    7.3462   13.1171   24.9555 C   0  0  0  0  0  0  0  0  0  0  0  0
    6.8851   11.6780   25.1267 C   0  0  0  0  0  0  0  0  0  0  0  0
    6.6103   11.2422   26.5472 C   0  0  0  0  0  0  0  0  0  0  0  0
    5.7297   12.4808   27.5264 S   0  0  0  0  0  0  0  0  0  0  0  0
    6.8423   13.9057   27.2945 C   0  0  0  0  0  0  0  0  0  0  0  0
    7.9279   13.6978   26.2430 C   0  0  0  0  0  0  0  0  0  0  0  0
  1  2  1  0
  2  3  1  0
  3  4  1  0
  4  5  2  0
  4  6  2  0
  4  7  1  0
  7  8  1  0
  8  9  1  0
  9 10  1  0
 10 11  1  0
 11 12  1  0
 12 13  1  0
 13  8  1  0
M  END
>  <ref_pdb>  (1132) 
A4706a

>  <subsites>  (1132) 
1 - Active Site

>  <HIPPO Compound ID>  (1132) 
4752

>  <energy_score>  (1132) 
-49.064676

>  <fragmenstein_mode>  (1132) 
expansion

>  <scratch_subdir>  (1132) 
/opt/xchem-fragalysis-2/maxwin/BulkDock/SCRATCH/512222/C7672-P439

>  <smiles>  (1132) 
CCCS(=O)(=O)NC1CCSCC1

>  <alias>  (1132) 
C7672-P439

>  <ref_mols>  (1132) 
A0719a,A4706a

>  <inspiration_score>  (1132) 
None

>  <tags>  (1132) 
BulkDock Fragalysis export,fragmenstein_placed,openbind_a71ev2a_c1_knitwork_impure,openbind_a71ev2a_c1_scaffolds

>  <fragmenstein_outcome>  (1132) 
acceptable

>  <fragmenstein_error>  (1132) 


>  <distance_score>  (1132) 
0.984104

>  <inchikey>  (1132) 
RGEDMRQLXNWHGH-UHFFFAOYSA-N

>  <name>  (1132) 
C7672-P439

>  <HIPPO Pose ID>  (1132) 
477786

>  <Energy>  (1132) 
-61.006445

>  <exports>  (1132) 
['/opt/xchem-fragalysis-2/maxwin/BulkDock/OUTPUTS/openbind_a71ev2a_c1_knitwork_impure_165VXJF.sdf', '/opt/xchem-fragalysis-2/maxwin/BulkDock/OUTPUTS/openbind_a71ev2a_c1_knitwork_impure_1B07QS4.sdf', '/opt/xchem-fragalysis-2/maxwin/BulkDock/OUTPUTS/openbind_a71ev2a_c1_knitwork_impure_1B07X5R.sdf', '/opt/xchem-fragalysis-2/maxwin/openbind-hippo/a71ev2a/openbind_a71ev2a_c1_scaffold_products.sdf', '/opt/xchem-fragalysis-2/maxwin/openbind-hippo/a71ev2a/cycle_01/bulkdock/openbind_a71ev2a_c1_scaffold_products.sdf', '/opt/xchem-fragalysis-2/maxwin/openbind-hippo/a71ev2a/cycle_01/bulkdock/openbind_a71ev2a_c1_scaffolds.sdf']

>  <fragmenstein_runtime>  (1132) 
2.265873

$$$$
C18486-P183
     RDKit          3D

 21 24  0  0  0  0  0  0  0  0999 V2000
   27.1410   20.0150   21.5904 C   0  0  0  0  0  0  0  0  0  0  0  0
   28.2403   20.4045   20.8322 C   0  0  0  0  0  0  0  0  0  0  0  0
   28.0754   21.1758   19.6766 C   0  0  0  0  0  0  0  0  0  0  0  0
   26.7728   21.5448   19.2994 C   0  0  0  0  0  0  0  0  0  0  0  0
   26.2471   22.4708   17.9528 S   0  0  0  0  0  0  0  0  0  0  0  0
   24.5974   22.3299   18.4628 C   0  0  0  0  0  0  0  0  0  0  0  0
   23.5510   22.9757   17.8530 N   0  0  0  0  0  0  0  0  0  0  0  0
   23.5889   23.2682   16.4086 C   0  0  0  0  0  0  0  0  0  0  0  0
   22.5202   24.3171   16.0075 C   0  0  0  0  0  0  0  0  0  0  0  0
   21.1553   23.9578   16.5102 N   0  0  0  0  0  0  0  0  0  0  0  0
   20.1611   24.8387   16.0270 C   0  0  0  0  0  0  0  0  0  0  0  0
   19.3537   25.6294   16.8497 C   0  0  0  0  0  0  0  0  0  0  0  0
   18.3944   26.4559   16.2772 C   0  0  0  0  0  0  0  0  0  0  0  0
   18.1682   26.5463   14.9527 N   0  0  0  0  0  0  0  0  0  0  0  0
   18.9351   25.7668   14.1668 C   0  0  0  0  0  0  0  0  0  0  0  0
   19.9211   24.9179   14.6484 C   0  0  0  0  0  0  0  0  0  0  0  0
   21.1808   23.7043   17.9726 C   0  0  0  0  0  0  0  0  0  0  0  0
   22.2057   22.6103   18.3314 C   0  0  0  0  0  0  0  0  0  0  0  0
   24.4432   21.6130   19.5581 N   0  0  0  0  0  0  0  0  0  0  0  0
   25.6592   21.1668   20.0435 C   0  0  0  0  0  0  0  0  0  0  0  0
   25.8492   20.3907   21.2064 C   0  0  0  0  0  0  0  0  0  0  0  0
  1  2  2  0
  2  3  1  0
  3  4  2  0
  4  5  1  0
  5  6  1  0
  6  7  1  0
  7  8  1  0
  8  9  1  0
  9 10  1  0
 10 11  1  0
 11 12  2  0
 12 13  1  0
 13 14  2  0
 14 15  1  0
 15 16  2  0
 10 17  1  0
 17 18  1  0
  6 19  2  0
 19 20  1  0
 20 21  2  0
 21  1  1  0
 20  4  1  0
 18  7  1  0
 16 11  1  0
M  END
>  <ref_pdb>  (1133) 
A3436a

>  <subsites>  (1133) 
1 - Active Site,5 - A3181/A/202/1

>  <HIPPO Compound ID>  (1133) 
31957

>  <energy_score>  (1133) 
-92.531481

>  <fragmenstein_mode>  (1133) 
expansion

>  <scratch_subdir>  (1133) 
/opt/xchem-fragalysis-2/maxwin/BulkDock/SCRATCH/512222/C18486-P183

>  <smiles>  (1133) 
c1ccc2sc(N3CCN(c4ccncc4)CC3)nc2c1

>  <alias>  (1133) 
C18486-P183

>  <ref_mols>  (1133) 
A0514b,A3436a

>  <inspiration_score>  (1133) 
None

>  <tags>  (1133) 
BulkDock Fragalysis export,fragmenstein_placed,openbind_a71ev2a_c1_knitwork_impure,openbind_a71ev2a_c1_scaffolds

>  <fragmenstein_outcome>  (1133) 
acceptable

>  <fragmenstein_error>  (1133) 


>  <distance_score>  (1133) 
0.506389

>  <inchikey>  (1133) 
ZLIGEXAOTFMWIY-UHFFFAOYSA-N

>  <name>  (1133) 
C18486-P183

>  <HIPPO Pose ID>  (1133) 
477874

>  <Energy>  (1133) 
83.319918

>  <exports>  (1133) 
['/opt/xchem-fragalysis-2/maxwin/BulkDock/OUTPUTS/openbind_a71ev2a_c1_knitwork_impure_165VXJF.sdf', '/opt/xchem-fragalysis-2/maxwin/BulkDock/OUTPUTS/openbind_a71ev2a_c1_knitwork_impure_1B07QS4.sdf', '/opt/xchem-fragalysis-2/maxwin/BulkDock/OUTPUTS/openbind_a71ev2a_c1_knitwork_impure_1B07X5R.sdf', '/opt/xchem-fragalysis-2/maxwin/openbind-hippo/a71ev2a/openbind_a71ev2a_c1_scaffold_products.sdf', '/opt/xchem-fragalysis-2/maxwin/openbind-hippo/a71ev2a/cycle_01/bulkdock/openbind_a71ev2a_c1_scaffold_products.sdf', '/opt/xchem-fragalysis-2/maxwin/openbind-hippo/a71ev2a/cycle_01/bulkdock/openbind_a71ev2a_c1_scaffolds.sdf']

>  <fragmenstein_runtime>  (1133) 
8.300385

$$$$
C8161-P192
     RDKit          3D

 17 17  0  0  0  0  0  0  0  0999 V2000
    6.3847   14.5234   22.7307 C   0  0  0  0  0  0  0  0  0  0  0  0
    7.6054   13.6228   22.5339 C   0  0  0  0  0  0  0  0  0  0  0  0
    8.8290   13.8201   23.4895 C   0  0  2  0  0  0  0  0  0  0  0  0
    9.8082   12.6522   23.2362 C   0  0  0  0  0  0  0  0  0  0  0  0
    8.3690   13.7658   25.0036 C   0  0  1  0  0  0  0  0  0  0  0  0
    7.7338   15.0101   25.3422 O   0  0  0  0  0  0  0  0  0  0  0  0
    7.4146   12.6358   25.3920 C   0  0  0  0  0  0  0  0  0  0  0  0
    8.1478   11.4879   25.7805 O   0  0  0  0  0  0  0  0  0  0  0  0
    7.4775   10.2586   25.5901 C   0  0  0  0  0  0  0  0  0  0  0  0
    6.0164   10.2292   25.9882 C   0  0  0  0  0  0  0  0  0  0  0  0
    7.8916    9.6939   24.2634 C   0  0  0  0  0  0  0  0  0  0  0  0
    9.4473   15.1809   23.2953 N   0  0  0  0  0  0  0  0  0  0  0  0
   10.7732   15.3976   23.8910 C   0  0  0  0  0  0  0  0  0  0  0  0
   11.9500   15.0980   22.9605 C   0  0  0  0  0  0  0  0  0  0  0  0
   11.8166   15.8021   21.6176 C   0  0  0  0  0  0  0  0  0  0  0  0
   10.4630   15.4981   21.0030 C   0  0  0  0  0  0  0  0  0  0  0  0
    9.3571   15.8560   21.9871 C   0  0  0  0  0  0  0  0  0  0  0  0
  1  2  1  0
  2  3  1  0
  3  4  1  1
  3  5  1  0
  5  6  1  6
  5  7  1  0
  7  8  1  0
  8  9  1  0
  9 10  1  0
  9 11  1  0
  3 12  1  0
 12 13  1  0
 13 14  1  0
 14 15  1  0
 15 16  1  0
 16 17  1  0
 17 12  1  0
M  END
>  <ref_pdb>  (1134) 
A3510a

>  <subsites>  (1134) 
1 - Active Site

>  <HIPPO Compound ID>  (1134) 
5996

>  <energy_score>  (1134) 
-60.796017

>  <fragmenstein_mode>  (1134) 
expansion

>  <scratch_subdir>  (1134) 
/opt/xchem-fragalysis-2/maxwin/BulkDock/SCRATCH/511209/C8161-P192

>  <smiles>  (1134) 
CC[C@](C)([C@@H](O)COC(C)C)N1CCCCC1

>  <alias>  (1134) 
C8161-P192

>  <ref_mols>  (1134) 
A3510a,A0719a

>  <inspiration_score>  (1134) 
None

>  <tags>  (1134) 
BulkDock Fragalysis export,fragmenstein_placed,openbind_a71ev2a_c1_knitwork_impure,openbind_a71ev2a_c1_scaffolds

>  <fragmenstein_outcome>  (1134) 
acceptable

>  <fragmenstein_error>  (1134) 


>  <distance_score>  (1134) 
0.97908

>  <inchikey>  (1134) 
SBMHKWRHORHXQA-UHFFFAOYSA-N

>  <name>  (1134) 
C8161-P192

>  <HIPPO Pose ID>  (1134) 
478864

>  <Energy>  (1134) 
80.902276

>  <exports>  (1134) 
['/opt/xchem-fragalysis-2/maxwin/BulkDock/OUTPUTS/openbind_a71ev2a_c1_knitwork_impure_165VXJF.sdf', '/opt/xchem-fragalysis-2/maxwin/BulkDock/OUTPUTS/openbind_a71ev2a_c1_knitwork_impure_1B07QS4.sdf', '/opt/xchem-fragalysis-2/maxwin/BulkDock/OUTPUTS/openbind_a71ev2a_c1_knitwork_impure_1B07X5R.sdf', '/opt/xchem-fragalysis-2/maxwin/openbind-hippo/a71ev2a/openbind_a71ev2a_c1_scaffold_products.sdf', '/opt/xchem-fragalysis-2/maxwin/openbind-hippo/a71ev2a/cycle_01/bulkdock/openbind_a71ev2a_c1_scaffold_products.sdf', '/opt/xchem-fragalysis-2/maxwin/openbind-hippo/a71ev2a/cycle_01/bulkdock/openbind_a71ev2a_c1_scaffolds.sdf']

>  <fragmenstein_runtime>  (1134) 
4.961268

$$$$
C8169-P192
     RDKit          3D

 14 14  0  0  0  0  0  0  0  0999 V2000
    7.8043   13.0081   22.3863 O   0  0  0  0  0  0  0  0  0  0  0  0
    8.8348   12.9641   23.3988 S   0  0  0  0  0  0  0  0  0  0  0  0
    9.9912   12.1132   23.2997 O   0  0  0  0  0  0  0  0  0  0  0  0
    9.2918   14.5495   23.6168 N   0  0  0  0  0  0  0  0  0  0  0  0
   10.6055   14.8582   24.1821 C   0  0  0  0  0  0  0  0  0  0  0  0
   11.7369   14.8052   23.1534 C   0  0  0  0  0  0  0  0  0  0  0  0
   11.6642   15.8459   22.0390 C   0  0  0  0  0  0  0  0  0  0  0  0
   10.4113   15.4681   20.8402 Cl  0  0  0  0  0  0  0  0  0  0  0  0
    8.0596   12.5426   24.8613 N   0  0  0  0  0  0  0  0  0  0  0  0
    7.5582   11.1311   24.7089 C   0  0  0  0  0  0  0  0  0  0  0  0
    6.7392   10.6411   25.8873 C   0  0  0  0  0  0  0  0  0  0  0  0
    5.7236   11.6426   26.4061 C   0  0  0  0  0  0  0  0  0  0  0  0
    6.3142   13.0354   26.5226 C   0  0  0  0  0  0  0  0  0  0  0  0
    6.9488   13.4639   25.2091 C   0  0  0  0  0  0  0  0  0  0  0  0
  1  2  2  0
  2  3  2  0
  2  4  1  0
  4  5  1  0
  5  6  1  0
  6  7  1  0
  7  8  1  0
  2  9  1  0
  9 10  1  0
 10 11  1  0
 11 12  1  0
 12 13  1  0
 13 14  1  0
 14  9  1  0
M  END
>  <ref_pdb>  (1135) 
A3510a

>  <subsites>  (1135) 
1 - Active Site

>  <HIPPO Compound ID>  (1135) 
1322

>  <energy_score>  (1135) 
-46.225677

>  <fragmenstein_mode>  (1135) 
expansion

>  <scratch_subdir>  (1135) 
/opt/xchem-fragalysis-2/maxwin/BulkDock/SCRATCH/511209/C8169-P192

>  <smiles>  (1135) 
O=S(=O)(NCCCCl)N1CCCCC1

>  <alias>  (1135) 
C8169-P192

>  <ref_mols>  (1135) 
A3510a,A0719a

>  <inspiration_score>  (1135) 
None

>  <tags>  (1135) 
BulkDock Fragalysis export,fragmenstein_placed,openbind_a71ev2a_c1_knitwork_impure,openbind_a71ev2a_c1_scaffolds

>  <fragmenstein_outcome>  (1135) 
acceptable

>  <fragmenstein_error>  (1135) 


>  <distance_score>  (1135) 
0.945879

>  <inchikey>  (1135) 
CEMHLKLHGFCDOP-UHFFFAOYSA-N

>  <name>  (1135) 
C8169-P192

>  <HIPPO Pose ID>  (1135) 
478868

>  <Energy>  (1135) 
-181.819436

>  <exports>  (1135) 
['/opt/xchem-fragalysis-2/maxwin/BulkDock/OUTPUTS/openbind_a71ev2a_c1_knitwork_impure_165VXJF.sdf', '/opt/xchem-fragalysis-2/maxwin/BulkDock/OUTPUTS/openbind_a71ev2a_c1_knitwork_impure_1B07QS4.sdf', '/opt/xchem-fragalysis-2/maxwin/BulkDock/OUTPUTS/openbind_a71ev2a_c1_knitwork_impure_1B07X5R.sdf', '/opt/xchem-fragalysis-2/maxwin/openbind-hippo/a71ev2a/openbind_a71ev2a_c1_scaffold_products.sdf', '/opt/xchem-fragalysis-2/maxwin/openbind-hippo/a71ev2a/cycle_01/bulkdock/openbind_a71ev2a_c1_scaffold_products.sdf', '/opt/xchem-fragalysis-2/maxwin/openbind-hippo/a71ev2a/cycle_01/bulkdock/openbind_a71ev2a_c1_scaffolds.sdf']

>  <fragmenstein_runtime>  (1135) 
13.861368

$$$$
C7479-P465
     RDKit          3D

 23 24  0  0  0  0  0  0  0  0999 V2000
    3.6720   12.4336   17.9381 C   0  0  0  0  0  0  0  0  0  0  0  0
    3.3477   12.3658   19.4269 C   0  0  0  0  0  0  0  0  0  0  0  0
    2.2570   11.3379   19.6929 C   0  0  0  0  0  0  0  0  0  0  0  0
    2.9647   13.6987   19.9240 C   0  0  0  0  0  0  0  0  0  0  0  0
    1.9699   14.3156   19.2254 O   0  0  0  0  0  0  0  0  0  0  0  0
    1.8737   15.5280   19.8009 C   0  0  0  0  0  0  0  0  0  0  0  0
    2.6926   15.7364   20.8129 N   0  0  0  0  0  0  0  0  0  0  0  0
    3.3761   14.5407   20.9403 C   0  0  0  0  0  0  0  0  0  0  0  0
    4.3736   14.3145   22.0385 C   0  0  0  0  0  0  0  0  0  0  0  0
    5.5565   15.1175   21.7634 N   0  0  0  0  0  0  0  0  0  0  0  0
    7.0437   14.5807   22.3016 S   0  0  0  0  0  0  0  0  0  0  0  0
    7.0324   13.1579   21.9927 O   0  0  0  0  0  0  0  0  0  0  0  0
    7.9561   15.3696   21.5001 O   0  0  0  0  0  0  0  0  0  0  0  0
    6.8794   14.9165   23.7896 N   0  0  0  0  0  0  0  0  0  0  0  0
    8.2113   14.7803   24.5437 S   0  0  2  0  0  0  0  0  0  0  0  0
    7.9356   15.5137   26.1429 C   0  0  0  0  0  0  0  0  0  0  0  0
    9.4713   15.3244   24.0854 O   0  0  0  0  0  0  0  0  0  0  0  0
    8.5352   13.0803   25.0103 C   0  0  0  0  0  0  0  0  0  0  0  0
    9.5157   12.3863   24.0603 C   0  0  0  0  0  0  0  0  0  0  0  0
    9.8520   10.9886   24.5582 C   0  0  0  0  0  0  0  0  0  0  0  0
    8.6180   10.1559   24.8130 C   0  0  0  0  0  0  0  0  0  0  0  0
    7.6030   10.8619   25.6922 C   0  0  0  0  0  0  0  0  0  0  0  0
    7.2641   12.2620   25.2166 C   0  0  0  0  0  0  0  0  0  0  0  0
  1  2  1  0
  2  3  1  0
  2  4  1  0
  4  5  1  0
  5  6  1  0
  6  7  2  0
  7  8  1  0
  8  9  1  0
  9 10  1  0
 10 11  1  0
 11 12  2  0
 11 13  2  0
 11 14  1  0
 14 15  2  0
 15 16  1  1
 15 17  2  0
 15 18  1  0
 18 19  1  0
 19 20  1  0
 20 21  1  0
 21 22  1  0
 22 23  1  0
  8  4  2  0
 23 18  1  0
M  END
>  <ref_pdb>  (1136) 
A4786a

>  <subsites>  (1136) 
1 - Active Site

>  <HIPPO Compound ID>  (1136) 
10869

>  <energy_score>  (1136) 
-112.894619

>  <fragmenstein_mode>  (1136) 
expansion

>  <scratch_subdir>  (1136) 
/opt/xchem-fragalysis-2/maxwin/BulkDock/SCRATCH/511209/C7479-P465

>  <smiles>  (1136) 
CC(C)c1ocnc1CNS(=O)(=O)N=[S@](C)(=O)C1CCCCC1

>  <alias>  (1136) 
C7479-P465

>  <ref_mols>  (1136) 
A3623a,A4786a

>  <inspiration_score>  (1136) 
None

>  <tags>  (1136) 
BulkDock Fragalysis export,fragmenstein_placed,openbind_a71ev2a_c1_knitwork_impure,openbind_a71ev2a_c1_scaffolds

>  <fragmenstein_outcome>  (1136) 
acceptable

>  <fragmenstein_error>  (1136) 


>  <distance_score>  (1136) 
0.824032

>  <inchikey>  (1136) 
PXFWFYMNCCXQPY-UHFFFAOYSA-N

>  <name>  (1136) 
C7479-P465

>  <HIPPO Pose ID>  (1136) 
478999

>  <Energy>  (1136) 
-246.989297

>  <exports>  (1136) 
['/opt/xchem-fragalysis-2/maxwin/BulkDock/OUTPUTS/openbind_a71ev2a_c1_knitwork_impure_165VXJF.sdf', '/opt/xchem-fragalysis-2/maxwin/BulkDock/OUTPUTS/openbind_a71ev2a_c1_knitwork_impure_1B07QS4.sdf', '/opt/xchem-fragalysis-2/maxwin/BulkDock/OUTPUTS/openbind_a71ev2a_c1_knitwork_impure_1B07X5R.sdf', '/opt/xchem-fragalysis-2/maxwin/openbind-hippo/a71ev2a/openbind_a71ev2a_c1_scaffold_products.sdf', '/opt/xchem-fragalysis-2/maxwin/openbind-hippo/a71ev2a/cycle_01/bulkdock/openbind_a71ev2a_c1_scaffold_products.sdf', '/opt/xchem-fragalysis-2/maxwin/openbind-hippo/a71ev2a/cycle_01/bulkdock/openbind_a71ev2a_c1_scaffolds.sdf']

>  <fragmenstein_runtime>  (1136) 
8.124714

$$$$
C11184-P344
     RDKit          3D

 15 15  0  0  0  0  0  0  0  0999 V2000
   11.4419   15.0031   18.7578 C   0  0  0  0  0  0  0  0  0  0  0  0
   10.8212   15.7812   19.6454 C   0  0  0  0  0  0  0  0  0  0  0  0
   10.6807   15.3742   21.0678 C   0  0  0  0  0  0  0  0  0  0  0  0
   11.8462   15.8645   21.9179 C   0  0  0  0  0  0  0  0  0  0  0  0
   12.0437   15.0421   23.1886 C   0  0  0  0  0  0  0  0  0  0  0  0
   10.9144   15.1328   24.2099 C   0  0  0  0  0  0  0  0  0  0  0  0
    9.6513   14.3331   23.9076 C   0  0  0  0  0  0  0  0  0  0  0  0
    9.8380   12.8302   24.0269 C   0  0  0  0  0  0  0  0  0  0  0  0
   10.8535   12.2219   23.6963 O   0  0  0  0  0  0  0  0  0  0  0  0
    8.7184   12.0571   24.6089 C   0  0  0  0  0  0  0  0  0  0  0  0
    8.7007   10.6809   24.4618 C   0  0  0  0  0  0  0  0  0  0  0  0
    7.7240    9.9744   25.1442 C   0  0  0  0  0  0  0  0  0  0  0  0
    6.7929   10.6510   25.9232 C   0  0  0  0  0  0  0  0  0  0  0  0
    6.8686   12.0307   25.9806 C   0  0  0  0  0  0  0  0  0  0  0  0
    7.8232   12.7478   25.3571 N   0  0  0  0  0  0  0  0  0  0  0  0
  1  2  2  0
  2  3  1  0
  3  4  1  0
  4  5  1  0
  5  6  1  0
  6  7  1  0
  7  8  1  0
  8  9  2  0
  8 10  1  0
 10 11  2  0
 11 12  1  0
 12 13  2  0
 13 14  1  0
 14 15  2  0
 15 10  1  0
M  END
>  <ref_pdb>  (1137) 
A4274b

>  <subsites>  (1137) 
1 - Active Site

>  <HIPPO Compound ID>  (1137) 
11184

>  <energy_score>  (1137) 
-2.803335

>  <fragmenstein_mode>  (1137) 
expansion

>  <scratch_subdir>  (1137) 
/opt/xchem-fragalysis-2/maxwin/BulkDock/SCRATCH/511209/C11184-P344

>  <smiles>  (1137) 
C=CCCCCCC(=O)c1ccccn1

>  <alias>  (1137) 
C11184-P344

>  <ref_mols>  (1137) 
A4274b,A1775a

>  <inspiration_score>  (1137) 
None

>  <tags>  (1137) 
BulkDock Fragalysis export,fragmenstein_placed,openbind_a71ev2a_c1_knitwork_impure,openbind_a71ev2a_c1_scaffolds

>  <fragmenstein_outcome>  (1137) 
acceptable

>  <fragmenstein_error>  (1137) 


>  <distance_score>  (1137) 
0.761526

>  <inchikey>  (1137) 
RWLBYOFXTWUWOG-UHFFFAOYSA-N

>  <name>  (1137) 
C11184-P344

>  <HIPPO Pose ID>  (1137) 
479406

>  <Energy>  (1137) 
64.458034

>  <exports>  (1137) 
['/opt/xchem-fragalysis-2/maxwin/BulkDock/OUTPUTS/openbind_a71ev2a_c1_knitwork_impure_165VXJF.sdf', '/opt/xchem-fragalysis-2/maxwin/BulkDock/OUTPUTS/openbind_a71ev2a_c1_knitwork_impure_1B07QS4.sdf', '/opt/xchem-fragalysis-2/maxwin/BulkDock/OUTPUTS/openbind_a71ev2a_c1_knitwork_impure_1B07X5R.sdf', '/opt/xchem-fragalysis-2/maxwin/openbind-hippo/a71ev2a/openbind_a71ev2a_c1_scaffold_products.sdf', '/opt/xchem-fragalysis-2/maxwin/openbind-hippo/a71ev2a/cycle_01/bulkdock/openbind_a71ev2a_c1_scaffold_products.sdf', '/opt/xchem-fragalysis-2/maxwin/openbind-hippo/a71ev2a/cycle_01/bulkdock/openbind_a71ev2a_c1_scaffolds.sdf']

>  <fragmenstein_runtime>  (1137) 
1.5045

$$$$
C11208-P344
     RDKit          3D

 12 12  0  0  0  0  0  0  0  0999 V2000
   11.0720   12.0511   23.7058 O   0  0  0  0  0  0  0  0  0  0  0  0
   10.0374   12.7075   23.6354 C   0  0  0  0  0  0  0  0  0  0  0  0
    9.9518   14.0568   22.9844 C   0  0  0  0  0  0  0  0  0  0  0  0
   10.5516   15.0552   23.9349 C   0  0  0  0  0  0  0  0  0  0  0  0
   11.8906   15.1539   23.7341 F   0  0  0  0  0  0  0  0  0  0  0  0
   10.0379   16.2842   23.6843 F   0  0  0  0  0  0  0  0  0  0  0  0
    8.8479   12.1891   24.3393 C   0  0  0  0  0  0  0  0  0  0  0  0
    8.6797   10.8165   24.4686 C   0  0  0  0  0  0  0  0  0  0  0  0
    7.6405   10.3625   25.2686 C   0  0  0  0  0  0  0  0  0  0  0  0
    6.8141   11.2841   25.9002 C   0  0  0  0  0  0  0  0  0  0  0  0
    7.0464   12.6352   25.6879 C   0  0  0  0  0  0  0  0  0  0  0  0
    8.0589   13.1155   24.9337 N   0  0  0  0  0  0  0  0  0  0  0  0
  1  2  2  0
  2  3  1  0
  3  4  1  0
  4  5  1  0
  4  6  1  0
  2  7  1  0
  7  8  2  0
  8  9  1  0
  9 10  2  0
 10 11  1  0
 11 12  2  0
 12  7  1  0
M  END
>  <ref_pdb>  (1138) 
A4274b

>  <subsites>  (1138) 
1 - Active Site

>  <HIPPO Compound ID>  (1138) 
36823

>  <energy_score>  (1138) 
-6.461612

>  <fragmenstein_mode>  (1138) 
expansion

>  <scratch_subdir>  (1138) 
/opt/xchem-fragalysis-2/maxwin/BulkDock/SCRATCH/511209/C11208-P344

>  <smiles>  (1138) 
O=C(CC(F)F)c1ccccn1

>  <alias>  (1138) 
C11208-P344

>  <ref_mols>  (1138) 
A4274b,A1775a

>  <inspiration_score>  (1138) 
None

>  <tags>  (1138) 
BulkDock Fragalysis export,fragmenstein_placed,openbind_a71ev2a_c1_knitwork_impure,openbind_a71ev2a_c1_scaffolds

>  <fragmenstein_outcome>  (1138) 
acceptable

>  <fragmenstein_error>  (1138) 


>  <distance_score>  (1138) 
0.811437

>  <inchikey>  (1138) 
BNFWVHFVEZCPPF-UHFFFAOYSA-N

>  <name>  (1138) 
C11208-P344

>  <HIPPO Pose ID>  (1138) 
479413

>  <Energy>  (1138) 
26.268812

>  <exports>  (1138) 
['/opt/xchem-fragalysis-2/maxwin/BulkDock/OUTPUTS/openbind_a71ev2a_c1_knitwork_impure_165VXJF.sdf', '/opt/xchem-fragalysis-2/maxwin/BulkDock/OUTPUTS/openbind_a71ev2a_c1_knitwork_impure_1B07QS4.sdf', '/opt/xchem-fragalysis-2/maxwin/BulkDock/OUTPUTS/openbind_a71ev2a_c1_knitwork_impure_1B07X5R.sdf', '/opt/xchem-fragalysis-2/maxwin/openbind-hippo/a71ev2a/openbind_a71ev2a_c1_scaffold_products.sdf', '/opt/xchem-fragalysis-2/maxwin/openbind-hippo/a71ev2a/cycle_01/bulkdock/openbind_a71ev2a_c1_scaffold_products.sdf', '/opt/xchem-fragalysis-2/maxwin/openbind-hippo/a71ev2a/cycle_01/bulkdock/openbind_a71ev2a_c1_scaffolds.sdf']

>  <fragmenstein_runtime>  (1138) 
0.817557

$$$$
C961-P444
     RDKit          3D

 18 20  0  0  0  0  0  0  0  0999 V2000
   25.2396   10.8967   -2.0318 O   0  0  0  0  0  0  0  0  0  0  0  0
   24.6040   11.8520   -1.7904 C   0  0  0  0  0  0  0  0  0  0  0  0
   23.3315   12.4298   -2.4994 N   0  0  0  0  0  0  0  0  0  0  0  0
   22.5734   11.9195   -3.5336 N   0  0  0  0  0  0  0  0  0  0  0  0
   22.3868   10.5628   -3.5564 C   0  0  0  0  0  0  0  0  0  0  0  0
   22.1919    9.7415   -2.5794 N   0  0  0  0  0  0  0  0  0  0  0  0
   22.0724    8.3681   -3.1087 C   0  0  0  0  0  0  0  0  0  0  0  0
   22.7894    8.2665   -4.4432 C   0  0  0  0  0  0  0  0  0  0  0  0
   22.4317    9.8703   -5.1709 S   0  0  0  0  0  0  0  0  0  0  0  0
   25.0169   12.8558   -0.6860 C   0  0  2  0  0  0  0  0  0  0  0  0
   26.2792   12.4247    0.0969 C   0  0  0  0  0  0  0  0  0  0  0  0
   25.9611   11.6787    1.3988 C   0  0  0  0  0  0  0  0  0  0  0  0
   25.0850   12.5400    2.3053 C   0  0  0  0  0  0  0  0  0  0  0  0
   23.9470   13.0508    1.5801 N   0  0  0  0  0  0  0  0  0  0  0  0
   22.7953   13.5661    2.0737 C   0  0  0  0  0  0  0  0  0  0  0  0
   22.0502   13.9905    1.0764 N   0  0  0  0  0  0  0  0  0  0  0  0
   22.7453   13.7712   -0.0917 N   0  0  0  0  0  0  0  0  0  0  0  0
   23.8894   13.1990    0.2235 C   0  0  0  0  0  0  0  0  0  0  0  0
  1  2  2  0
  2  3  1  0
  3  4  1  0
  4  5  1  0
  5  6  2  0
  6  7  1  0
  7  8  1  0
  8  9  1  0
 10  2  1  6
 10 11  1  0
 11 12  1  0
 12 13  1  0
 13 14  1  0
 14 15  1  0
 15 16  2  0
 16 17  1  0
 17 18  2  0
  9  5  1  0
 18 10  1  0
 18 14  1  0
M  END
>  <ref_pdb>  (1139) 
A4712a

>  <subsites>  (1139) 
1 - Active Site,6 - A0486/A/147/1

>  <HIPPO Compound ID>  (1139) 
2081

>  <energy_score>  (1139) 
-27.420201

>  <fragmenstein_mode>  (1139) 
expansion

>  <scratch_subdir>  (1139) 
/opt/xchem-fragalysis-2/maxwin/BulkDock/SCRATCH/511209/C961-P444

>  <smiles>  (1139) 
O=C(NNC1=NCCS1)[C@@H]1CCCn2cnnc21

>  <alias>  (1139) 
C961-P444

>  <ref_mols>  (1139) 
A0239a,A4712a

>  <inspiration_score>  (1139) 
None

>  <tags>  (1139) 
BulkDock Fragalysis export,fragmenstein_placed,openbind_a71ev2a_c1_knitwork_impure,openbind_a71ev2a_c1_scaffolds

>  <fragmenstein_outcome>  (1139) 
acceptable

>  <fragmenstein_error>  (1139) 


>  <distance_score>  (1139) 
0.595512

>  <inchikey>  (1139) 
PLNOJQJYNMYLML-UHFFFAOYSA-N

>  <name>  (1139) 
C961-P444

>  <HIPPO Pose ID>  (1139) 
479656

>  <Energy>  (1139) 
32.041945

>  <exports>  (1139) 
['/opt/xchem-fragalysis-2/maxwin/BulkDock/OUTPUTS/openbind_a71ev2a_c1_knitwork_impure_165VXJF.sdf', '/opt/xchem-fragalysis-2/maxwin/BulkDock/OUTPUTS/openbind_a71ev2a_c1_knitwork_impure_1B07QS4.sdf', '/opt/xchem-fragalysis-2/maxwin/BulkDock/OUTPUTS/openbind_a71ev2a_c1_knitwork_impure_1B07X5R.sdf', '/opt/xchem-fragalysis-2/maxwin/openbind-hippo/a71ev2a/openbind_a71ev2a_c1_scaffold_products.sdf', '/opt/xchem-fragalysis-2/maxwin/openbind-hippo/a71ev2a/cycle_01/bulkdock/openbind_a71ev2a_c1_scaffold_products.sdf', '/opt/xchem-fragalysis-2/maxwin/openbind-hippo/a71ev2a/cycle_01/bulkdock/openbind_a71ev2a_c1_scaffolds.sdf']

>  <fragmenstein_runtime>  (1139) 
2.390697

$$$$
C1002-P444
     RDKit          3D

 20 22  0  0  0  0  0  0  0  0999 V2000
   30.3670    7.9924    1.0184 C   0  0  0  0  0  0  0  0  0  0  0  0
   30.1308    9.0836    1.4617 C   0  0  0  0  0  0  0  0  0  0  0  0
   29.8263   10.4148    2.0082 C   0  0  2  0  0  0  0  0  0  0  0  0
   28.4721   10.7643    1.6594 N   0  0  0  0  0  0  0  0  0  0  0  0
   27.5294   11.8441    2.2459 C   0  0  0  0  0  0  0  0  0  0  0  0
   27.7295   12.6666    3.0476 O   0  0  0  0  0  0  0  0  0  0  0  0
   26.1875   11.7093    1.5128 C   0  0  2  0  0  0  0  0  0  0  0  0
   26.3391   12.0272    0.0124 C   0  0  0  0  0  0  0  0  0  0  0  0
   25.0120   11.8295   -0.7194 C   0  0  0  0  0  0  0  0  0  0  0  0
   23.9136   12.5280   -0.0177 C   0  0  0  0  0  0  0  0  0  0  0  0
   22.7623   12.9324   -0.5037 N   0  0  0  0  0  0  0  0  0  0  0  0
   22.0787   13.5591    0.5118 N   0  0  0  0  0  0  0  0  0  0  0  0
   22.8262   13.5181    1.5966 C   0  0  0  0  0  0  0  0  0  0  0  0
   22.5033   14.1074    2.9069 C   0  0  0  0  0  0  0  0  0  0  0  0
   23.9850   12.8567    1.3073 N   0  0  0  0  0  0  0  0  0  0  0  0
   25.1472   12.6537    2.1485 C   0  0  0  0  0  0  0  0  0  0  0  0
   30.7261   11.4728    1.3770 C   0  0  0  0  0  0  0  0  0  0  0  0
   30.7634   12.8826    2.0374 C   0  0  0  0  0  0  0  0  0  0  0  0
   32.2651   12.9260    1.6940 C   0  0  0  0  0  0  0  0  0  0  0  0
   32.2408   11.3856    1.7303 C   0  0  0  0  0  0  0  0  0  0  0  0
  1  2  3  0
  3  2  1  6
  3  4  1  0
  4  5  1  0
  5  6  2  0
  7  5  1  1
  7  8  1  0
  8  9  1  0
  9 10  1  0
 10 11  2  0
 11 12  1  0
 12 13  2  0
 13 14  1  0
 13 15  1  0
 15 16  1  0
  3 17  1  0
 17 18  1  0
 18 19  1  0
 19 20  1  0
 16  7  1  0
 20 17  1  0
 15 10  1  0
M  END
>  <ref_pdb>  (1140) 
A4712a

>  <subsites>  (1140) 
1 - Active Site,6 - A0486/A/147/1

>  <HIPPO Compound ID>  (1140) 
29673

>  <energy_score>  (1140) 
-24.878054

>  <fragmenstein_mode>  (1140) 
expansion

>  <scratch_subdir>  (1140) 
/opt/xchem-fragalysis-2/maxwin/BulkDock/SCRATCH/511209/C1002-P444

>  <smiles>  (1140) 
C#C[C@H](NC(=O)[C@@H]1CCc2nnc(C)n2C1)C1CCC1

>  <alias>  (1140) 
C1002-P444

>  <ref_mols>  (1140) 
A0239a,A4712a

>  <inspiration_score>  (1140) 
None

>  <tags>  (1140) 
BulkDock Fragalysis export,fragmenstein_placed,openbind_a71ev2a_c1_knitwork_impure,openbind_a71ev2a_c1_scaffolds

>  <fragmenstein_outcome>  (1140) 
acceptable

>  <fragmenstein_error>  (1140) 


>  <distance_score>  (1140) 
0.416574

>  <inchikey>  (1140) 
JMSLYWOGHLUQQG-UHFFFAOYSA-N

>  <name>  (1140) 
C1002-P444

>  <HIPPO Pose ID>  (1140) 
479658

>  <Energy>  (1140) 
-15.755242

>  <exports>  (1140) 
['/opt/xchem-fragalysis-2/maxwin/BulkDock/OUTPUTS/openbind_a71ev2a_c1_knitwork_impure_165VXJF.sdf', '/opt/xchem-fragalysis-2/maxwin/BulkDock/OUTPUTS/openbind_a71ev2a_c1_knitwork_impure_1B07QS4.sdf', '/opt/xchem-fragalysis-2/maxwin/BulkDock/OUTPUTS/openbind_a71ev2a_c1_knitwork_impure_1B07X5R.sdf', '/opt/xchem-fragalysis-2/maxwin/openbind-hippo/a71ev2a/openbind_a71ev2a_c1_scaffold_products.sdf', '/opt/xchem-fragalysis-2/maxwin/openbind-hippo/a71ev2a/cycle_01/bulkdock/openbind_a71ev2a_c1_scaffold_products.sdf', '/opt/xchem-fragalysis-2/maxwin/openbind-hippo/a71ev2a/cycle_01/bulkdock/openbind_a71ev2a_c1_scaffolds.sdf']

>  <fragmenstein_runtime>  (1140) 
18.878519

$$$$
C4702-P226
     RDKit          3D

 11 11  0  0  0  0  0  0  0  0999 V2000
   10.3947   15.9004   19.9518 C   0  0  0  0  0  0  0  0  0  0  0  0
   10.7353   15.2608   21.0818 C   0  0  0  0  0  0  0  0  0  0  0  0
   12.0859   15.4416   21.7076 C   0  0  0  0  0  0  0  0  0  0  0  0
   11.9994   15.4844   23.2280 C   0  0  0  0  0  0  0  0  0  0  0  0
   11.1499   14.3400   23.7848 C   0  0  0  0  0  0  0  0  0  0  0  0
    9.8043   14.4024   23.2144 N   0  0  0  0  0  0  0  0  0  0  0  0
    8.7807   13.5529   23.8606 C   0  0  2  0  0  0  0  0  0  0  0  0
    8.4569   14.0808   25.2526 C   0  0  0  0  0  0  0  0  0  0  0  0
    9.1361   12.0716   23.9532 C   0  0  0  0  0  0  0  0  0  0  0  0
    8.7517   11.3303   24.8600 O   0  0  0  0  0  0  0  0  0  0  0  0
    9.8385   14.2567   21.7550 C   0  0  0  0  0  0  0  0  0  0  0  0
  1  2  2  0
  2  3  1  0
  3  4  1  0
  4  5  1  0
  5  6  1  0
  6  7  1  0
  7  8  1  1
  7  9  1  0
  9 10  2  0
  6 11  1  0
 11  2  1  0
M  END
>  <ref_pdb>  (1141) 
A3858b

>  <subsites>  (1141) 
1 - Active Site

>  <HIPPO Compound ID>  (1141) 
12270

>  <energy_score>  (1141) 
-32.889879

>  <fragmenstein_mode>  (1141) 
expansion

>  <scratch_subdir>  (1141) 
/opt/xchem-fragalysis-2/maxwin/BulkDock/SCRATCH/512224/C4702-P226

>  <smiles>  (1141) 
C=C1CCCN([C@H](C)C=O)C1

>  <alias>  (1141) 
C4702-P226

>  <ref_mols>  (1141) 
A1775a,A3858b

>  <inspiration_score>  (1141) 
None

>  <tags>  (1141) 
BulkDock Fragalysis export,fragmenstein_placed,openbind_a71ev2a_c1_knitwork_impure,openbind_a71ev2a_c1_scaffolds

>  <fragmenstein_outcome>  (1141) 
acceptable

>  <fragmenstein_error>  (1141) 


>  <distance_score>  (1141) 
0.983892

>  <inchikey>  (1141) 
JDXDXEWAEPMSSN-UHFFFAOYSA-N

>  <name>  (1141) 
C4702-P226

>  <HIPPO Pose ID>  (1141) 
480823

>  <Energy>  (1141) 
31.133796

>  <exports>  (1141) 
['/opt/xchem-fragalysis-2/maxwin/BulkDock/OUTPUTS/openbind_a71ev2a_c1_knitwork_impure_165VXJF.sdf', '/opt/xchem-fragalysis-2/maxwin/BulkDock/OUTPUTS/openbind_a71ev2a_c1_knitwork_impure_1B07QS4.sdf', '/opt/xchem-fragalysis-2/maxwin/BulkDock/OUTPUTS/openbind_a71ev2a_c1_knitwork_impure_1B07X5R.sdf', '/opt/xchem-fragalysis-2/maxwin/openbind-hippo/a71ev2a/openbind_a71ev2a_c1_scaffold_products.sdf', '/opt/xchem-fragalysis-2/maxwin/openbind-hippo/a71ev2a/cycle_01/bulkdock/openbind_a71ev2a_c1_scaffold_products.sdf', '/opt/xchem-fragalysis-2/maxwin/openbind-hippo/a71ev2a/cycle_01/bulkdock/openbind_a71ev2a_c1_scaffolds.sdf']

>  <fragmenstein_runtime>  (1141) 
2.398562

$$$$
C1392-P493
     RDKit          3D

 17 17  0  0  0  0  0  0  0  0999 V2000
    9.7751   12.8415   23.7395 C   0  0  0  0  0  0  0  0  0  0  0  0
    9.1925   14.2557   23.5333 C   0  0  0  0  0  0  0  0  0  0  0  0
    8.0123   14.1785   22.5483 C   0  0  0  0  0  0  0  0  0  0  0  0
   10.3563   15.1818   22.9731 C   0  0  0  0  0  0  0  0  0  0  0  0
   10.7943   16.0461   23.6273 O   0  0  0  0  0  0  0  0  0  0  0  0
   10.7323   14.7153   21.5389 N   0  0  0  0  0  0  0  0  0  0  0  0
   11.6679   15.2836   20.5714 C   0  0  0  0  0  0  0  0  0  0  0  0
   11.1190   15.4482   19.1516 C   0  0  0  0  0  0  0  0  0  0  0  0
   10.6614   14.2716   18.6768 F   0  0  0  0  0  0  0  0  0  0  0  0
   10.1101   16.3422   19.1079 F   0  0  0  0  0  0  0  0  0  0  0  0
   12.0706   15.8513   18.2898 F   0  0  0  0  0  0  0  0  0  0  0  0
    8.7218   14.8256   24.9427 C   0  0  1  0  0  0  0  0  0  0  0  0
    8.1519   16.2682   24.8785 C   0  0  0  0  0  0  0  0  0  0  0  0
    6.7722   16.4142   25.5158 C   0  0  0  0  0  0  0  0  0  0  0  0
    5.8604   15.2673   25.1013 C   0  0  0  0  0  0  0  0  0  0  0  0
    6.3702   13.9565   25.4915 N   0  0  0  0  0  0  0  0  0  0  0  0
    7.7943   13.9193   25.7876 C   0  0  0  0  0  0  0  0  0  0  0  0
  1  2  1  0
  2  3  1  0
  2  4  1  0
  4  5  2  0
  4  6  1  0
  6  7  1  0
  7  8  1  0
  8  9  1  0
  8 10  1  0
  8 11  1  0
 12  2  1  6
 12 13  1  0
 13 14  1  0
 14 15  1  0
 15 16  1  0
 16 17  1  0
 17 12  1  0
M  END
>  <ref_pdb>  (1142) 
A4873b

>  <subsites>  (1142) 
1 - Active Site

>  <HIPPO Compound ID>  (1142) 
1311

>  <energy_score>  (1142) 
-8.488795

>  <fragmenstein_mode>  (1142) 
expansion

>  <scratch_subdir>  (1142) 
/opt/xchem-fragalysis-2/maxwin/BulkDock/SCRATCH/512224/C1392-P493

>  <smiles>  (1142) 
CC(C)(C(=O)NCC(F)(F)F)[C@H]1CCCNC1

>  <alias>  (1142) 
C1392-P493

>  <ref_mols>  (1142) 
A1776a,A1778a,A4873b

>  <inspiration_score>  (1142) 
None

>  <tags>  (1142) 
BulkDock Fragalysis export,fragmenstein_placed,openbind_a71ev2a_c1_knitwork_impure,openbind_a71ev2a_c1_scaffolds

>  <fragmenstein_outcome>  (1142) 
acceptable

>  <fragmenstein_error>  (1142) 


>  <distance_score>  (1142) 
0.824651

>  <inchikey>  (1142) 
ZJOXVMDCMBYBRX-UHFFFAOYSA-N

>  <name>  (1142) 
C1392-P493

>  <HIPPO Pose ID>  (1142) 
481181

>  <Energy>  (1142) 
70.051104

>  <exports>  (1142) 
['/opt/xchem-fragalysis-2/maxwin/BulkDock/OUTPUTS/openbind_a71ev2a_c1_knitwork_impure_165VXJF.sdf', '/opt/xchem-fragalysis-2/maxwin/BulkDock/OUTPUTS/openbind_a71ev2a_c1_knitwork_impure_1B07QS4.sdf', '/opt/xchem-fragalysis-2/maxwin/BulkDock/OUTPUTS/openbind_a71ev2a_c1_knitwork_impure_1B07X5R.sdf', '/opt/xchem-fragalysis-2/maxwin/openbind-hippo/a71ev2a/openbind_a71ev2a_c1_scaffold_products.sdf', '/opt/xchem-fragalysis-2/maxwin/openbind-hippo/a71ev2a/cycle_01/bulkdock/openbind_a71ev2a_c1_scaffold_products.sdf', '/opt/xchem-fragalysis-2/maxwin/openbind-hippo/a71ev2a/cycle_01/bulkdock/openbind_a71ev2a_c1_scaffolds.sdf']

>  <fragmenstein_runtime>  (1142) 
164.505613

$$$$
C15044-P321
     RDKit          3D

 15 15  0  0  0  0  0  0  0  0999 V2000
   10.5926   15.2050   19.6160 N   0  0  0  0  0  0  0  0  0  0  0  0
   11.2839   15.5767   20.4669 C   0  0  0  0  0  0  0  0  0  0  0  0
   12.0857   16.0373   21.5986 C   0  0  0  0  0  0  0  0  0  0  0  0
   12.0023   15.0794   22.7883 C   0  0  0  0  0  0  0  0  0  0  0  0
   10.6516   15.0979   23.4948 C   0  0  0  0  0  0  0  0  0  0  0  0
    9.7041   14.2704   22.7509 N   0  0  0  0  0  0  0  0  0  0  0  0
    8.2873   13.8134   23.5324 S   0  0  0  0  0  0  0  0  0  0  0  0
    8.1254   14.6905   24.6691 O   0  0  0  0  0  0  0  0  0  0  0  0
    7.3093   13.6493   22.4768 O   0  0  0  0  0  0  0  0  0  0  0  0
    8.6006   12.1791   24.1508 C   0  0  0  0  0  0  0  0  0  0  0  0
    9.4610   11.3272   23.4861 C   0  0  0  0  0  0  0  0  0  0  0  0
    9.3609    9.9792   23.7880 C   0  0  0  0  0  0  0  0  0  0  0  0
    8.4250    9.5622   24.7277 C   0  0  0  0  0  0  0  0  0  0  0  0
    7.6533   10.5030   25.3858 C   0  0  0  0  0  0  0  0  0  0  0  0
    7.7304   11.8141   25.1301 N   0  0  0  0  0  0  0  0  0  0  0  0
  1  2  3  0
  2  3  1  0
  3  4  1  0
  4  5  1  0
  5  6  1  0
  6  7  1  0
  7  8  2  0
  7  9  2  0
  7 10  1  0
 10 11  2  0
 11 12  1  0
 12 13  2  0
 13 14  1  0
 14 15  2  0
 15 10  1  0
M  END
>  <ref_pdb>  (1143) 
A4350a

>  <subsites>  (1143) 
1 - Active Site

>  <HIPPO Compound ID>  (1143) 
14060

>  <energy_score>  (1143) 
-33.773136

>  <fragmenstein_mode>  (1143) 
expansion

>  <scratch_subdir>  (1143) 
/opt/xchem-fragalysis-2/maxwin/BulkDock/SCRATCH/512224/C15044-P321

>  <smiles>  (1143) 
N#CCCCNS(=O)(=O)c1ccccn1

>  <alias>  (1143) 
C15044-P321

>  <ref_mols>  (1143) 
A4350a,A0719a

>  <inspiration_score>  (1143) 
None

>  <tags>  (1143) 
BulkDock Fragalysis export,fragmenstein_placed,openbind_a71ev2a_c1_knitwork_impure,openbind_a71ev2a_c1_scaffolds

>  <fragmenstein_outcome>  (1143) 
acceptable

>  <fragmenstein_error>  (1143) 


>  <distance_score>  (1143) 
0.900658

>  <inchikey>  (1143) 
UWPFTRXOTWJPHV-UHFFFAOYSA-N

>  <name>  (1143) 
C15044-P321

>  <HIPPO Pose ID>  (1143) 
481467

>  <Energy>  (1143) 
24.193811

>  <exports>  (1143) 
['/opt/xchem-fragalysis-2/maxwin/BulkDock/OUTPUTS/openbind_a71ev2a_c1_knitwork_impure_165VXJF.sdf', '/opt/xchem-fragalysis-2/maxwin/BulkDock/OUTPUTS/openbind_a71ev2a_c1_knitwork_impure_1B07QS4.sdf', '/opt/xchem-fragalysis-2/maxwin/BulkDock/OUTPUTS/openbind_a71ev2a_c1_knitwork_impure_1B07X5R.sdf', '/opt/xchem-fragalysis-2/maxwin/openbind-hippo/a71ev2a/openbind_a71ev2a_c1_scaffold_products.sdf', '/opt/xchem-fragalysis-2/maxwin/openbind-hippo/a71ev2a/cycle_01/bulkdock/openbind_a71ev2a_c1_scaffold_products.sdf', '/opt/xchem-fragalysis-2/maxwin/openbind-hippo/a71ev2a/cycle_01/bulkdock/openbind_a71ev2a_c1_scaffolds.sdf']

>  <fragmenstein_runtime>  (1143) 
3.805744

$$$$
C15048-P321
     RDKit          3D

 16 16  0  0  0  0  0  0  0  0999 V2000
    9.9356   15.0253   26.4119 C   0  0  0  0  0  0  0  0  0  0  0  0
    8.4665   14.7213   26.1396 C   0  0  0  0  0  0  0  0  0  0  0  0
    8.2775   14.0908   24.7332 C   0  0  2  0  0  0  0  0  0  0  0  0
    7.0827   14.7480   24.1367 N   0  0  0  0  0  0  0  0  0  0  0  0
    6.9172   14.5646   22.4817 S   0  0  0  0  0  0  0  0  0  0  0  0
    7.8760   15.4440   21.8642 O   0  0  0  0  0  0  0  0  0  0  0  0
    6.8920   13.1594   22.1679 O   0  0  0  0  0  0  0  0  0  0  0  0
    5.3623   15.1925   22.2474 N   0  0  0  0  0  0  0  0  0  0  0  0
    4.4075   15.0349   23.3682 C   0  0  0  0  0  0  0  0  0  0  0  0
    4.7399   14.7320   20.9824 C   0  0  0  0  0  0  0  0  0  0  0  0
    8.2015   12.5642   24.8072 C   0  0  0  0  0  0  0  0  0  0  0  0
    7.2055   11.9193   25.5510 C   0  0  0  0  0  0  0  0  0  0  0  0
    7.1771   10.5321   25.5954 C   0  0  0  0  0  0  0  0  0  0  0  0
    8.0533    9.7412   24.9476 N   0  0  0  0  0  0  0  0  0  0  0  0
    8.9840   10.3659   24.1935 C   0  0  0  0  0  0  0  0  0  0  0  0
    9.1037   11.7509   24.1027 C   0  0  0  0  0  0  0  0  0  0  0  0
  1  2  1  0
  3  2  1  1
  3  4  1  0
  4  5  1  0
  5  6  2  0
  5  7  2  0
  5  8  1  0
  8  9  1  0
  8 10  1  0
  3 11  1  0
 11 12  2  0
 12 13  1  0
 13 14  2  0
 14 15  1  0
 15 16  2  0
 16 11  1  0
M  END
>  <ref_pdb>  (1144) 
A4350a

>  <subsites>  (1144) 
1 - Active Site

>  <HIPPO Compound ID>  (1144) 
1526

>  <energy_score>  (1144) 
-28.892386

>  <fragmenstein_mode>  (1144) 
expansion

>  <scratch_subdir>  (1144) 
/opt/xchem-fragalysis-2/maxwin/BulkDock/SCRATCH/512224/C15048-P321

>  <smiles>  (1144) 
CC[C@H](NS(=O)(=O)N(C)C)c1ccncc1

>  <alias>  (1144) 
C15048-P321

>  <ref_mols>  (1144) 
A4350a,A0719a

>  <inspiration_score>  (1144) 
None

>  <tags>  (1144) 
BulkDock Fragalysis export,fragmenstein_placed,openbind_a71ev2a_c1_knitwork_impure,openbind_a71ev2a_c1_scaffolds

>  <fragmenstein_outcome>  (1144) 
acceptable

>  <fragmenstein_error>  (1144) 


>  <distance_score>  (1144) 
0.814307

>  <inchikey>  (1144) 
KRMYACDXSNMVGI-UHFFFAOYSA-N

>  <name>  (1144) 
C15048-P321

>  <HIPPO Pose ID>  (1144) 
481468

>  <Energy>  (1144) 
-167.25603

>  <exports>  (1144) 
['/opt/xchem-fragalysis-2/maxwin/BulkDock/OUTPUTS/openbind_a71ev2a_c1_knitwork_impure_165VXJF.sdf', '/opt/xchem-fragalysis-2/maxwin/BulkDock/OUTPUTS/openbind_a71ev2a_c1_knitwork_impure_1B07QS4.sdf', '/opt/xchem-fragalysis-2/maxwin/BulkDock/OUTPUTS/openbind_a71ev2a_c1_knitwork_impure_1B07X5R.sdf', '/opt/xchem-fragalysis-2/maxwin/openbind-hippo/a71ev2a/openbind_a71ev2a_c1_scaffold_products.sdf', '/opt/xchem-fragalysis-2/maxwin/openbind-hippo/a71ev2a/cycle_01/bulkdock/openbind_a71ev2a_c1_scaffold_products.sdf', '/opt/xchem-fragalysis-2/maxwin/openbind-hippo/a71ev2a/cycle_01/bulkdock/openbind_a71ev2a_c1_scaffolds.sdf']

>  <fragmenstein_runtime>  (1144) 
9.406891

$$$$
C8169-P321
     RDKit          3D

 14 14  0  0  0  0  0  0  0  0999 V2000
    7.6692   14.7672   24.3778 O   0  0  0  0  0  0  0  0  0  0  0  0
    8.2065   13.8143   23.4432 S   0  0  0  0  0  0  0  0  0  0  0  0
    7.4049   13.1638   22.4360 O   0  0  0  0  0  0  0  0  0  0  0  0
    9.4882   14.5187   22.6767 N   0  0  0  0  0  0  0  0  0  0  0  0
   10.4703   15.2691   23.4568 C   0  0  0  0  0  0  0  0  0  0  0  0
   11.8302   15.1474   22.7728 C   0  0  0  0  0  0  0  0  0  0  0  0
   11.9791   16.0267   21.5355 C   0  0  0  0  0  0  0  0  0  0  0  0
   10.9324   15.5154   20.1927 Cl  0  0  0  0  0  0  0  0  0  0  0  0
    8.9763   12.6494   24.3389 N   0  0  0  0  0  0  0  0  0  0  0  0
    8.2111   12.0595   25.4391 C   0  0  0  0  0  0  0  0  0  0  0  0
    7.4984   10.8128   25.0073 C   0  0  0  0  0  0  0  0  0  0  0  0
    8.5009    9.7907   24.5296 C   0  0  0  0  0  0  0  0  0  0  0  0
    9.4908   10.3285   23.5221 C   0  0  0  0  0  0  0  0  0  0  0  0
    9.9507   11.7668   23.6963 C   0  0  0  0  0  0  0  0  0  0  0  0
  1  2  2  0
  2  3  2  0
  2  4  1  0
  4  5  1  0
  5  6  1  0
  6  7  1  0
  7  8  1  0
  2  9  1  0
  9 10  1  0
 10 11  1  0
 11 12  1  0
 12 13  1  0
 13 14  1  0
 14  9  1  0
M  END
>  <ref_pdb>  (1145) 
A4350a

>  <subsites>  (1145) 
1 - Active Site

>  <HIPPO Compound ID>  (1145) 
29675

>  <energy_score>  (1145) 
-82.354082

>  <fragmenstein_mode>  (1145) 
expansion

>  <scratch_subdir>  (1145) 
/opt/xchem-fragalysis-2/maxwin/BulkDock/SCRATCH/512224/C8169-P321

>  <smiles>  (1145) 
O=S(=O)(NCCCCl)N1CCCCC1

>  <alias>  (1145) 
C8169-P321

>  <ref_mols>  (1145) 
A4350a,A0719a

>  <inspiration_score>  (1145) 
None

>  <tags>  (1145) 
BulkDock Fragalysis export,fragmenstein_placed,openbind_a71ev2a_c1_knitwork_impure,openbind_a71ev2a_c1_scaffolds

>  <fragmenstein_outcome>  (1145) 
acceptable

>  <fragmenstein_error>  (1145) 


>  <distance_score>  (1145) 
0.986456

>  <inchikey>  (1145) 
VPRZTSOJFRBNDG-UHFFFAOYSA-N

>  <name>  (1145) 
C8169-P321

>  <HIPPO Pose ID>  (1145) 
481498

>  <Energy>  (1145) 
-178.870481

>  <exports>  (1145) 
['/opt/xchem-fragalysis-2/maxwin/BulkDock/OUTPUTS/openbind_a71ev2a_c1_knitwork_impure_165VXJF.sdf', '/opt/xchem-fragalysis-2/maxwin/BulkDock/OUTPUTS/openbind_a71ev2a_c1_knitwork_impure_1B07QS4.sdf', '/opt/xchem-fragalysis-2/maxwin/BulkDock/OUTPUTS/openbind_a71ev2a_c1_knitwork_impure_1B07X5R.sdf', '/opt/xchem-fragalysis-2/maxwin/openbind-hippo/a71ev2a/openbind_a71ev2a_c1_scaffold_products.sdf', '/opt/xchem-fragalysis-2/maxwin/openbind-hippo/a71ev2a/cycle_01/bulkdock/openbind_a71ev2a_c1_scaffold_products.sdf', '/opt/xchem-fragalysis-2/maxwin/openbind-hippo/a71ev2a/cycle_01/bulkdock/openbind_a71ev2a_c1_scaffolds.sdf']

>  <fragmenstein_runtime>  (1145) 
3.360342

$$$$
C13035-P152
     RDKit          3D

 18 19  0  0  0  0  0  0  0  0999 V2000
    3.7944   12.1350   30.0427 C   0  0  0  0  0  0  0  0  0  0  0  0
    3.2246   10.8361   29.4737 C   0  0  2  0  0  0  0  0  0  0  0  0
    3.2997   10.8433   27.9467 C   0  0  0  0  0  0  0  0  0  0  0  0
    4.6196   10.2808   27.4399 C   0  0  0  0  0  0  0  0  0  0  0  0
    4.8403    9.1362   27.4505 O   0  0  0  0  0  0  0  0  0  0  0  0
    5.4530   11.4565   26.8814 N   0  0  0  0  0  0  0  0  0  0  0  0
    6.6133   11.4583   26.1798 C   0  0  0  0  0  0  0  0  0  0  0  0
    7.3369   10.3304   25.6854 C   0  0  0  0  0  0  0  0  0  0  0  0
    8.2867   10.8889   24.8754 C   0  0  0  0  0  0  0  0  0  0  0  0
    8.1009   12.2256   24.9618 N   0  0  0  0  0  0  0  0  0  0  0  0
    7.1514   12.6256   25.7960 N   0  0  0  0  0  0  0  0  0  0  0  0
    8.9156   13.0151   24.0633 C   0  0  0  0  0  0  0  0  0  0  0  0
    9.9679   11.9769   23.6413 C   0  0  0  0  0  0  0  0  0  0  0  0
    9.3475   10.5736   23.9056 C   0  0  0  0  0  0  0  0  0  0  0  0
    1.7768   10.6487   29.8967 C   0  0  0  0  0  0  0  0  0  0  0  0
    1.6442   10.6701   31.2387 F   0  0  0  0  0  0  0  0  0  0  0  0
    1.2885    9.4676   29.4576 F   0  0  0  0  0  0  0  0  0  0  0  0
    0.9927   11.6234   29.3855 F   0  0  0  0  0  0  0  0  0  0  0  0
  2  1  1  6
  2  3  1  0
  3  4  1  0
  4  5  2  0
  4  6  1  0
  6  7  1  0
  7  8  1  0
  8  9  2  0
  9 10  1  0
 10 11  1  0
 10 12  1  0
 12 13  1  0
 13 14  1  0
  2 15  1  0
 15 16  1  0
 15 17  1  0
 15 18  1  0
 11  7  2  0
 14  9  1  0
M  END
>  <ref_pdb>  (1146) 
A3201a

>  <subsites>  (1146) 
1 - Active Site

>  <HIPPO Compound ID>  (1146) 
6021

>  <energy_score>  (1146) 
-40.751248

>  <fragmenstein_mode>  (1146) 
expansion

>  <scratch_subdir>  (1146) 
/opt/xchem-fragalysis-2/maxwin/BulkDock/SCRATCH/512224/C13035-P152

>  <smiles>  (1146) 
C[C@H](CC(=O)Nc1cc2n(n1)CCC2)C(F)(F)F

>  <alias>  (1146) 
C13035-P152

>  <ref_mols>  (1146) 
A1445a,A3201a

>  <inspiration_score>  (1146) 
None

>  <tags>  (1146) 
BulkDock Fragalysis export,fragmenstein_placed,openbind_a71ev2a_c1_knitwork_impure,openbind_a71ev2a_c1_scaffolds

>  <fragmenstein_outcome>  (1146) 
acceptable

>  <fragmenstein_error>  (1146) 


>  <distance_score>  (1146) 
0.972637

>  <inchikey>  (1146) 
JKCAOPGWMBQAQI-UHFFFAOYSA-N

>  <name>  (1146) 
C13035-P152

>  <HIPPO Pose ID>  (1146) 
481725

>  <Energy>  (1146) 
-20.795219

>  <exports>  (1146) 
['/opt/xchem-fragalysis-2/maxwin/BulkDock/OUTPUTS/openbind_a71ev2a_c1_knitwork_impure_165VXJF.sdf', '/opt/xchem-fragalysis-2/maxwin/BulkDock/OUTPUTS/openbind_a71ev2a_c1_knitwork_impure_1B07QS4.sdf', '/opt/xchem-fragalysis-2/maxwin/BulkDock/OUTPUTS/openbind_a71ev2a_c1_knitwork_impure_1B07X5R.sdf', '/opt/xchem-fragalysis-2/maxwin/openbind-hippo/a71ev2a/openbind_a71ev2a_c1_scaffold_products.sdf', '/opt/xchem-fragalysis-2/maxwin/openbind-hippo/a71ev2a/cycle_01/bulkdock/openbind_a71ev2a_c1_scaffold_products.sdf', '/opt/xchem-fragalysis-2/maxwin/openbind-hippo/a71ev2a/cycle_01/bulkdock/openbind_a71ev2a_c1_scaffolds.sdf']

>  <fragmenstein_runtime>  (1146) 
7.017181

$$$$
C7182-P152
     RDKit          3D

 22 23  0  0  0  0  0  0  0  0999 V2000
    9.3928    9.8370   23.6820 C   0  0  0  0  0  0  0  0  0  0  0  0
    8.4551   10.4846   24.6313 C   0  0  0  0  0  0  0  0  0  0  0  0
    7.5248    9.9118   25.4708 C   0  0  0  0  0  0  0  0  0  0  0  0
    6.8522   10.9818   26.0867 C   0  0  0  0  0  0  0  0  0  0  0  0
    5.7050   10.8444   26.8097 N   0  0  0  0  0  0  0  0  0  0  0  0
    4.8430   11.9071   27.5447 C   0  0  0  0  0  0  0  0  0  0  0  0
    5.0259   13.0497   27.7076 O   0  0  0  0  0  0  0  0  0  0  0  0
    3.5451   11.2263   27.9868 C   0  0  0  0  0  0  0  0  0  0  0  0
    3.3440   11.1215   29.5027 C   0  0  1  0  0  0  0  0  0  0  0  0
    3.5134   12.4618   30.2169 C   0  0  0  0  0  0  0  0  0  0  0  0
    1.9454   10.5788   29.7746 C   0  0  0  0  0  0  0  0  0  0  0  0
    1.7147   10.4345   31.0965 F   0  0  0  0  0  0  0  0  0  0  0  0
    1.7751    9.3653   29.2009 F   0  0  0  0  0  0  0  0  0  0  0  0
    0.9899   11.3922   29.2749 F   0  0  0  0  0  0  0  0  0  0  0  0
    7.4332   12.1416   25.7929 N   0  0  0  0  0  0  0  0  0  0  0  0
    8.3054   11.8410   24.8068 N   0  0  0  0  0  0  0  0  0  0  0  0
    8.9337   12.9046   24.0265 C   0  0  0  0  0  0  0  0  0  0  0  0
   10.3494   13.2104   24.5304 C   0  0  0  0  0  0  0  0  0  0  0  0
   11.0385   14.2479   23.6481 C   0  0  0  0  0  0  0  0  0  0  0  0
   10.2057   15.5187   23.5239 C   0  0  0  0  0  0  0  0  0  0  0  0
    8.7846   15.2299   23.0461 C   0  0  0  0  0  0  0  0  0  0  0  0
    8.0953   14.1913   23.9299 C   0  0  0  0  0  0  0  0  0  0  0  0
  1  2  1  0
  2  3  2  0
  3  4  1  0
  4  5  1  0
  5  6  1  0
  6  7  2  0
  6  8  1  0
  8  9  1  0
  9 10  1  1
  9 11  1  0
 11 12  1  0
 11 13  1  0
 11 14  1  0
  4 15  2  0
 15 16  1  0
 16 17  1  0
 17 18  1  0
 18 19  1  0
 19 20  1  0
 20 21  1  0
 21 22  1  0
 16  2  1  0
 22 17  1  0
M  END
>  <ref_pdb>  (1147) 
A3201a

>  <subsites>  (1147) 
1 - Active Site

>  <HIPPO Compound ID>  (1147) 
33613

>  <energy_score>  (1147) 
-10.452722

>  <fragmenstein_mode>  (1147) 
expansion

>  <scratch_subdir>  (1147) 
/opt/xchem-fragalysis-2/maxwin/BulkDock/SCRATCH/512224/C7182-P152

>  <smiles>  (1147) 
Cc1cc(NC(=O)C[C@@H](C)C(F)(F)F)nn1C1CCCCC1

>  <alias>  (1147) 
C7182-P152

>  <ref_mols>  (1147) 
A1445a,A3201a

>  <inspiration_score>  (1147) 
None

>  <tags>  (1147) 
BulkDock Fragalysis export,fragmenstein_placed,openbind_a71ev2a_c1_knitwork_impure,openbind_a71ev2a_c1_scaffolds

>  <fragmenstein_outcome>  (1147) 
acceptable

>  <fragmenstein_error>  (1147) 


>  <distance_score>  (1147) 
0.960516

>  <inchikey>  (1147) 
PSPORJXVCMZQLN-UHFFFAOYSA-N

>  <name>  (1147) 
C7182-P152

>  <HIPPO Pose ID>  (1147) 
481768

>  <Energy>  (1147) 
-13.813528

>  <exports>  (1147) 
['/opt/xchem-fragalysis-2/maxwin/BulkDock/OUTPUTS/openbind_a71ev2a_c1_knitwork_impure_165VXJF.sdf', '/opt/xchem-fragalysis-2/maxwin/BulkDock/OUTPUTS/openbind_a71ev2a_c1_knitwork_impure_1B07QS4.sdf', '/opt/xchem-fragalysis-2/maxwin/BulkDock/OUTPUTS/openbind_a71ev2a_c1_knitwork_impure_1B07X5R.sdf', '/opt/xchem-fragalysis-2/maxwin/openbind-hippo/a71ev2a/openbind_a71ev2a_c1_scaffold_products.sdf', '/opt/xchem-fragalysis-2/maxwin/openbind-hippo/a71ev2a/cycle_01/bulkdock/openbind_a71ev2a_c1_scaffold_products.sdf', '/opt/xchem-fragalysis-2/maxwin/openbind-hippo/a71ev2a/cycle_01/bulkdock/openbind_a71ev2a_c1_scaffolds.sdf']

>  <fragmenstein_runtime>  (1147) 
14.744723

$$$$
C16242-P168
     RDKit          3D

 20 21  0  0  0  0  0  0  0  0999 V2000
   12.6790   13.6566   23.8455 C   0  0  0  0  0  0  0  0  0  0  0  0
   12.5469   13.3764   22.4626 O   0  0  0  0  0  0  0  0  0  0  0  0
   12.7932   14.4954   21.5939 C   0  0  0  0  0  0  0  0  0  0  0  0
   11.5130   15.0200   21.0810 C   0  0  0  0  0  0  0  0  0  0  0  0
   11.2069   15.2430   19.8199 N   0  0  0  0  0  0  0  0  0  0  0  0
    9.9179   15.7411   19.7546 C   0  0  0  0  0  0  0  0  0  0  0  0
    9.2785   15.8546   20.9716 C   0  0  0  0  0  0  0  0  0  0  0  0
    7.9549   16.3726   21.3422 C   0  0  0  0  0  0  0  0  0  0  0  0
    7.0118   15.3070   21.5808 O   0  0  0  0  0  0  0  0  0  0  0  0
    7.2292   14.3335   22.4838 C   0  0  0  0  0  0  0  0  0  0  0  0
    7.1353   13.1685   22.1120 O   0  0  0  0  0  0  0  0  0  0  0  0
    7.4708   14.7273   23.9431 C   0  0  0  0  0  0  0  0  0  0  0  0
    8.6281   14.1622   24.5664 O   0  0  0  0  0  0  0  0  0  0  0  0
    8.5381   12.7930   24.6542 C   0  0  0  0  0  0  0  0  0  0  0  0
    9.3689   12.0202   23.8556 C   0  0  0  0  0  0  0  0  0  0  0  0
    9.2590   10.6373   23.9338 C   0  0  0  0  0  0  0  0  0  0  0  0
    8.3458   10.0818   24.8190 C   0  0  0  0  0  0  0  0  0  0  0  0
    7.5917   10.9394   25.6059 C   0  0  0  0  0  0  0  0  0  0  0  0
    7.6858   12.2881   25.5670 N   0  0  0  0  0  0  0  0  0  0  0  0
   10.3295   15.4184   22.2068 S   0  0  0  0  0  0  0  0  0  0  0  0
  1  2  1  0
  2  3  1  0
  3  4  1  0
  4  5  2  0
  5  6  1  0
  6  7  2  0
  7  8  1  0
  8  9  1  0
  9 10  1  0
 10 11  2  0
 10 12  1  0
 12 13  1  0
 13 14  1  0
 14 15  2  0
 15 16  1  0
 16 17  2  0
 17 18  1  0
 18 19  2  0
  7 20  1  0
 20  4  1  0
 19 14  1  0
M  END
>  <ref_pdb>  (1148) 
A3306a

>  <subsites>  (1148) 
1 - Active Site

>  <HIPPO Compound ID>  (1148) 
29655

>  <energy_score>  (1148) 
-49.033967

>  <fragmenstein_mode>  (1148) 
expansion

>  <scratch_subdir>  (1148) 
/opt/xchem-fragalysis-2/maxwin/BulkDock/SCRATCH/512224/C16242-P168

>  <smiles>  (1148) 
COCc1ncc(COC(=O)COc2ccccn2)s1

>  <alias>  (1148) 
C16242-P168

>  <ref_mols>  (1148) 
A3306a,A3623a

>  <inspiration_score>  (1148) 
None

>  <tags>  (1148) 
BulkDock Fragalysis export,fragmenstein_placed,openbind_a71ev2a_c1_knitwork_impure,openbind_a71ev2a_c1_scaffolds

>  <fragmenstein_outcome>  (1148) 
acceptable

>  <fragmenstein_error>  (1148) 


>  <distance_score>  (1148) 
0.957262

>  <inchikey>  (1148) 
KAWBAAHMUIIUOI-UHFFFAOYSA-N

>  <name>  (1148) 
C16242-P168

>  <HIPPO Pose ID>  (1148) 
481980

>  <Energy>  (1148) 
65.307578

>  <exports>  (1148) 
['/opt/xchem-fragalysis-2/maxwin/BulkDock/OUTPUTS/openbind_a71ev2a_c1_knitwork_impure_165VXJF.sdf', '/opt/xchem-fragalysis-2/maxwin/BulkDock/OUTPUTS/openbind_a71ev2a_c1_knitwork_impure_1B07QS4.sdf', '/opt/xchem-fragalysis-2/maxwin/BulkDock/OUTPUTS/openbind_a71ev2a_c1_knitwork_impure_1B07X5R.sdf', '/opt/xchem-fragalysis-2/maxwin/openbind-hippo/a71ev2a/openbind_a71ev2a_c1_scaffold_products.sdf', '/opt/xchem-fragalysis-2/maxwin/openbind-hippo/a71ev2a/cycle_01/bulkdock/openbind_a71ev2a_c1_scaffold_products.sdf', '/opt/xchem-fragalysis-2/maxwin/openbind-hippo/a71ev2a/cycle_01/bulkdock/openbind_a71ev2a_c1_scaffolds.sdf']

>  <fragmenstein_runtime>  (1148) 
2.552004

$$$$
C8840-P439
     RDKit          3D

 15 17  0  0  0  0  0  0  0  0999 V2000
    5.9968   12.4976   26.8749 C   0  0  0  0  0  0  0  0  0  0  0  0
    5.9855   13.8059   26.3707 C   0  0  0  0  0  0  0  0  0  0  0  0
    6.7926   14.1563   25.2862 C   0  0  0  0  0  0  0  0  0  0  0  0
    7.6421   13.1980   24.7518 C   0  0  0  0  0  0  0  0  0  0  0  0
    7.6825   11.9051   25.2861 C   0  0  0  0  0  0  0  0  0  0  0  0
    6.8414   11.5346   26.3206 C   0  0  0  0  0  0  0  0  0  0  0  0
    8.6952   11.0593   24.5847 C   0  0  0  0  0  0  0  0  0  0  0  0
    9.4971   12.1172   23.8161 C   0  0  0  0  0  0  0  0  0  0  0  0
    8.5368   13.3029   23.5366 C   0  0  2  0  0  0  0  0  0  0  0  0
    9.0698   14.6505   23.3480 N   0  0  0  0  0  0  0  0  0  0  0  0
   10.4519   14.8883   23.7420 C   0  0  0  0  0  0  0  0  0  0  0  0
   11.4850   14.4690   22.7004 C   0  0  0  0  0  0  0  0  0  0  0  0
   11.1878   15.1056   21.3518 C   0  0  0  0  0  0  0  0  0  0  0  0
    9.7499   14.8241   20.9406 C   0  0  0  0  0  0  0  0  0  0  0  0
    8.7674   15.2361   22.0321 C   0  0  0  0  0  0  0  0  0  0  0  0
  1  2  2  0
  2  3  1  0
  3  4  2  0
  4  5  1  0
  5  6  2  0
  5  7  1  0
  7  8  1  0
  8  9  1  0
  9 10  1  1
 10 11  1  0
 11 12  1  0
 12 13  1  0
 13 14  1  0
 14 15  1  0
  6  1  1  0
 15 10  1  0
  9  4  1  0
M  END
>  <ref_pdb>  (1149) 
A4706a

>  <subsites>  (1149) 
1 - Active Site

>  <HIPPO Compound ID>  (1149) 
11209

>  <energy_score>  (1149) 
-38.329349

>  <fragmenstein_mode>  (1149) 
expansion

>  <scratch_subdir>  (1149) 
/opt/xchem-fragalysis-2/maxwin/BulkDock/SCRATCH/512224/C8840-P439

>  <smiles>  (1149) 
c1ccc2c(c1)CC[C@@H]2N1CCCCC1

>  <alias>  (1149) 
C8840-P439

>  <ref_mols>  (1149) 
A1778a,A4706a

>  <inspiration_score>  (1149) 
None

>  <tags>  (1149) 
BulkDock Fragalysis export,fragmenstein_placed,openbind_a71ev2a_c1_knitwork_impure,openbind_a71ev2a_c1_scaffolds

>  <fragmenstein_outcome>  (1149) 
acceptable

>  <fragmenstein_error>  (1149) 


>  <distance_score>  (1149) 
0.848115

>  <inchikey>  (1149) 
BTBDFXKRKUXPIR-UHFFFAOYSA-N

>  <name>  (1149) 
C8840-P439

>  <HIPPO Pose ID>  (1149) 
482653

>  <Energy>  (1149) 
34.227734

>  <exports>  (1149) 
['/opt/xchem-fragalysis-2/maxwin/BulkDock/OUTPUTS/openbind_a71ev2a_c1_knitwork_impure_165VXJF.sdf', '/opt/xchem-fragalysis-2/maxwin/BulkDock/OUTPUTS/openbind_a71ev2a_c1_knitwork_impure_1B07QS4.sdf', '/opt/xchem-fragalysis-2/maxwin/BulkDock/OUTPUTS/openbind_a71ev2a_c1_knitwork_impure_1B07X5R.sdf', '/opt/xchem-fragalysis-2/maxwin/openbind-hippo/a71ev2a/openbind_a71ev2a_c1_scaffold_products.sdf', '/opt/xchem-fragalysis-2/maxwin/openbind-hippo/a71ev2a/cycle_01/bulkdock/openbind_a71ev2a_c1_scaffold_products.sdf', '/opt/xchem-fragalysis-2/maxwin/openbind-hippo/a71ev2a/cycle_01/bulkdock/openbind_a71ev2a_c1_scaffolds.sdf']

>  <fragmenstein_runtime>  (1149) 
1.784056

$$$$
C8854-P439
     RDKit          3D

 16 18  0  0  0  0  0  0  0  0999 V2000
    5.7788   12.8205   26.8440 C   0  0  0  0  0  0  0  0  0  0  0  0
    5.9286   14.0234   26.1659 C   0  0  0  0  0  0  0  0  0  0  0  0
    6.8552   14.1307   25.1265 C   0  0  0  0  0  0  0  0  0  0  0  0
    7.6909   13.0536   24.7766 C   0  0  0  0  0  0  0  0  0  0  0  0
    7.5496   11.8486   25.4895 C   0  0  0  0  0  0  0  0  0  0  0  0
    6.5805   11.7375   26.5006 C   0  0  0  0  0  0  0  0  0  0  0  0
    8.4916   10.6961   25.2913 C   0  0  0  0  0  0  0  0  0  0  0  0
    9.2393   10.6969   23.9795 C   0  0  0  0  0  0  0  0  0  0  0  0
    9.7560   12.0847   23.6449 C   0  0  0  0  0  0  0  0  0  0  0  0
    8.6372   13.1485   23.5739 C   0  0  2  0  0  0  0  0  0  0  0  0
    9.0992   14.5318   23.3545 N   0  0  0  0  0  0  0  0  0  0  0  0
   10.4640   14.8708   23.7388 C   0  0  0  0  0  0  0  0  0  0  0  0
   11.5187   14.6150   22.6632 C   0  0  0  0  0  0  0  0  0  0  0  0
   11.1258   15.2580   21.3445 C   0  0  0  0  0  0  0  0  0  0  0  0
    9.7216   14.8339   20.9449 C   0  0  0  0  0  0  0  0  0  0  0  0
    8.7190   15.1124   22.0587 C   0  0  0  0  0  0  0  0  0  0  0  0
  1  2  2  0
  2  3  1  0
  3  4  2  0
  4  5  1  0
  5  6  2  0
  5  7  1  0
  7  8  1  0
  8  9  1  0
  9 10  1  0
 10 11  1  1
 11 12  1  0
 12 13  1  0
 13 14  1  0
 14 15  1  0
 15 16  1  0
  6  1  1  0
 16 11  1  0
 10  4  1  0
M  END
>  <ref_pdb>  (1150) 
A4706a

>  <subsites>  (1150) 
1 - Active Site

>  <HIPPO Compound ID>  (1150) 
21032

>  <energy_score>  (1150) 
-35.883405

>  <fragmenstein_mode>  (1150) 
expansion

>  <scratch_subdir>  (1150) 
/opt/xchem-fragalysis-2/maxwin/BulkDock/SCRATCH/512224/C8854-P439

>  <smiles>  (1150) 
c1ccc2c(c1)CCC[C@@H]2N1CCCCC1

>  <alias>  (1150) 
C8854-P439

>  <ref_mols>  (1150) 
A1778a,A4706a

>  <inspiration_score>  (1150) 
None

>  <tags>  (1150) 
BulkDock Fragalysis export,fragmenstein_placed,openbind_a71ev2a_c1_knitwork_impure,openbind_a71ev2a_c1_scaffolds

>  <fragmenstein_outcome>  (1150) 
acceptable

>  <fragmenstein_error>  (1150) 


>  <distance_score>  (1150) 
0.996449

>  <inchikey>  (1150) 
LUVPXWSUDOENCR-UHFFFAOYSA-N

>  <name>  (1150) 
C8854-P439

>  <HIPPO Pose ID>  (1150) 
482655

>  <Energy>  (1150) 
36.515664

>  <exports>  (1150) 
['/opt/xchem-fragalysis-2/maxwin/BulkDock/OUTPUTS/openbind_a71ev2a_c1_knitwork_impure_165VXJF.sdf', '/opt/xchem-fragalysis-2/maxwin/BulkDock/OUTPUTS/openbind_a71ev2a_c1_knitwork_impure_1B07QS4.sdf', '/opt/xchem-fragalysis-2/maxwin/BulkDock/OUTPUTS/openbind_a71ev2a_c1_knitwork_impure_1B07X5R.sdf', '/opt/xchem-fragalysis-2/maxwin/openbind-hippo/a71ev2a/openbind_a71ev2a_c1_scaffold_products.sdf', '/opt/xchem-fragalysis-2/maxwin/openbind-hippo/a71ev2a/cycle_01/bulkdock/openbind_a71ev2a_c1_scaffold_products.sdf', '/opt/xchem-fragalysis-2/maxwin/openbind-hippo/a71ev2a/cycle_01/bulkdock/openbind_a71ev2a_c1_scaffolds.sdf']

>  <fragmenstein_runtime>  (1150) 
2.607454

$$$$
C2188-P174
     RDKit          3D

 14 16  0  0  0  0  0  0  0  0999 V2000
    4.5802   14.6934   27.7909 C   0  0  0  0  0  0  0  0  0  0  0  0
    5.5107   13.7716   27.8814 N   0  0  0  0  0  0  0  0  0  0  0  0
    5.8020   13.4052   26.5801 C   0  0  0  0  0  0  0  0  0  0  0  0
    6.8576   12.3695   26.3111 C   0  0  1  0  0  0  0  0  0  0  0  0
    6.2156   11.0011   26.0201 C   0  0  0  0  0  0  0  0  0  0  0  0
    7.2165    9.9562   25.5404 C   0  0  0  0  0  0  0  0  0  0  0  0
    8.0478   10.3643   24.3284 C   0  0  0  0  0  0  0  0  0  0  0  0
    8.4713   11.7953   24.3864 C   0  0  0  0  0  0  0  0  0  0  0  0
    9.4866   12.3913   23.5780 C   0  0  0  0  0  0  0  0  0  0  0  0
    9.6213   13.7378   23.8240 C   0  0  0  0  0  0  0  0  0  0  0  0
    8.5509   14.2736   25.0440 S   0  0  0  0  0  0  0  0  0  0  0  0
    7.8867   12.7124   25.2461 C   0  0  0  0  0  0  0  0  0  0  0  0
    4.9779   14.0915   25.7108 C   0  0  0  0  0  0  0  0  0  0  0  0
    4.2222   14.9209   26.4933 N   0  0  0  0  0  0  0  0  0  0  0  0
  1  2  2  0
  2  3  1  0
  4  3  1  6
  4  5  1  0
  5  6  1  0
  6  7  1  0
  7  8  1  0
  8  9  1  0
  9 10  2  0
 10 11  1  0
 11 12  1  0
  3 13  2  0
 13 14  1  0
 14  1  1  0
 12  4  1  0
 12  8  2  0
M  END
>  <ref_pdb>  (1151) 
A3371a

>  <subsites>  (1151) 
1 - Active Site

>  <HIPPO Compound ID>  (1151) 
29667

>  <energy_score>  (1151) 
-33.973655

>  <fragmenstein_mode>  (1151) 
expansion

>  <scratch_subdir>  (1151) 
/opt/xchem-fragalysis-2/maxwin/BulkDock/SCRATCH/512224/C2188-P174

>  <smiles>  (1151) 
c1nc([C@H]2CCCc3ccsc32)c[nH]1

>  <alias>  (1151) 
C2188-P174

>  <ref_mols>  (1151) 
A1778a,A3371a

>  <inspiration_score>  (1151) 
None

>  <tags>  (1151) 
BulkDock Fragalysis export,fragmenstein_placed,openbind_a71ev2a_c1_knitwork_impure,openbind_a71ev2a_c1_scaffolds

>  <fragmenstein_outcome>  (1151) 
acceptable

>  <fragmenstein_error>  (1151) 


>  <distance_score>  (1151) 
0.755556

>  <inchikey>  (1151) 
SPUMQZRDWYQOSZ-UHFFFAOYSA-N

>  <name>  (1151) 
C2188-P174

>  <HIPPO Pose ID>  (1151) 
482695

>  <Energy>  (1151) 
31.178811

>  <exports>  (1151) 
['/opt/xchem-fragalysis-2/maxwin/BulkDock/OUTPUTS/openbind_a71ev2a_c1_knitwork_impure_165VXJF.sdf', '/opt/xchem-fragalysis-2/maxwin/BulkDock/OUTPUTS/openbind_a71ev2a_c1_knitwork_impure_1B07QS4.sdf', '/opt/xchem-fragalysis-2/maxwin/BulkDock/OUTPUTS/openbind_a71ev2a_c1_knitwork_impure_1B07X5R.sdf', '/opt/xchem-fragalysis-2/maxwin/openbind-hippo/a71ev2a/openbind_a71ev2a_c1_scaffold_products.sdf', '/opt/xchem-fragalysis-2/maxwin/openbind-hippo/a71ev2a/cycle_01/bulkdock/openbind_a71ev2a_c1_scaffold_products.sdf', '/opt/xchem-fragalysis-2/maxwin/openbind-hippo/a71ev2a/cycle_01/bulkdock/openbind_a71ev2a_c1_scaffolds.sdf']

>  <fragmenstein_runtime>  (1151) 
1.751436

$$$$
C15025-P275
     RDKit          3D

 12 12  0  0  0  0  0  0  0  0999 V2000
   10.6996   14.7535   22.8679 C   0  0  0  0  0  0  0  0  0  0  0  0
    9.2151   14.6765   22.5599 C   0  0  0  0  0  0  0  0  0  0  0  0
    8.4788   13.5582   23.2306 N   0  0  0  0  0  0  0  0  0  0  0  0
    8.7936   13.3613   24.8768 S   0  0  0  0  0  0  0  0  0  0  0  0
    8.3239   14.5693   25.5196 O   0  0  0  0  0  0  0  0  0  0  0  0
   10.1494   12.8974   25.0485 O   0  0  0  0  0  0  0  0  0  0  0  0
    7.7357   12.0532   25.3694 C   0  0  0  0  0  0  0  0  0  0  0  0
    6.6803   12.2906   26.2490 C   0  0  0  0  0  0  0  0  0  0  0  0
    5.9445   11.2128   26.7245 C   0  0  0  0  0  0  0  0  0  0  0  0
    6.2955    9.9436   26.2998 C   0  0  0  0  0  0  0  0  0  0  0  0
    7.3183    9.6868   25.4521 N   0  0  0  0  0  0  0  0  0  0  0  0
    8.0305   10.7524   25.0048 C   0  0  0  0  0  0  0  0  0  0  0  0
  1  2  1  0
  2  3  1  0
  3  4  1  0
  4  5  2  0
  4  6  2  0
  4  7  1  0
  7  8  2  0
  8  9  1  0
  9 10  2  0
 10 11  1  0
 11 12  2  0
 12  7  1  0
M  END
>  <ref_pdb>  (1152) 
A4031b

>  <subsites>  (1152) 
1 - Active Site

>  <HIPPO Compound ID>  (1152) 
3817

>  <energy_score>  (1152) 
-15.83715

>  <fragmenstein_mode>  (1152) 
expansion

>  <scratch_subdir>  (1152) 
/opt/xchem-fragalysis-2/maxwin/BulkDock/SCRATCH/512224/C15025-P275

>  <smiles>  (1152) 
CCNS(=O)(=O)c1cccnc1

>  <alias>  (1152) 
C15025-P275

>  <ref_mols>  (1152) 
A4031b,A0719a

>  <inspiration_score>  (1152) 
None

>  <tags>  (1152) 
BulkDock Fragalysis export,fragmenstein_placed,openbind_a71ev2a_c1_knitwork_impure,openbind_a71ev2a_c1_scaffolds

>  <fragmenstein_outcome>  (1152) 
acceptable

>  <fragmenstein_error>  (1152) 


>  <distance_score>  (1152) 
0.815813

>  <inchikey>  (1152) 
MUQXCGYUEZQXBU-UHFFFAOYSA-N

>  <name>  (1152) 
C15025-P275

>  <HIPPO Pose ID>  (1152) 
482829

>  <Energy>  (1152) 
-47.590822

>  <exports>  (1152) 
['/opt/xchem-fragalysis-2/maxwin/BulkDock/OUTPUTS/openbind_a71ev2a_c1_knitwork_impure_165VXJF.sdf', '/opt/xchem-fragalysis-2/maxwin/BulkDock/OUTPUTS/openbind_a71ev2a_c1_knitwork_impure_1B07QS4.sdf', '/opt/xchem-fragalysis-2/maxwin/BulkDock/OUTPUTS/openbind_a71ev2a_c1_knitwork_impure_1B07X5R.sdf', '/opt/xchem-fragalysis-2/maxwin/openbind-hippo/a71ev2a/openbind_a71ev2a_c1_scaffold_products.sdf', '/opt/xchem-fragalysis-2/maxwin/openbind-hippo/a71ev2a/cycle_01/bulkdock/openbind_a71ev2a_c1_scaffold_products.sdf', '/opt/xchem-fragalysis-2/maxwin/openbind-hippo/a71ev2a/cycle_01/bulkdock/openbind_a71ev2a_c1_scaffolds.sdf']

>  <fragmenstein_runtime>  (1152) 
1.384057

$$$$
C15036-P275
     RDKit          3D

 14 14  0  0  0  0  0  0  0  0999 V2000
   12.2899   16.2107   21.5707 N   0  0  0  0  0  0  0  0  0  0  0  0
   11.7088   15.4841   22.2586 C   0  0  0  0  0  0  0  0  0  0  0  0
   10.9436   14.5854   23.1116 C   0  0  0  0  0  0  0  0  0  0  0  0
    9.5646   14.3031   22.5047 C   0  0  0  0  0  0  0  0  0  0  0  0
    8.8784   13.1165   23.1407 N   0  0  0  0  0  0  0  0  0  0  0  0
    8.7502   13.2482   24.8225 S   0  0  0  0  0  0  0  0  0  0  0  0
   10.0703   12.9311   25.3135 O   0  0  0  0  0  0  0  0  0  0  0  0
    8.1372   14.5231   25.1143 O   0  0  0  0  0  0  0  0  0  0  0  0
    7.6835   11.9702   25.3436 C   0  0  0  0  0  0  0  0  0  0  0  0
    6.6084   12.2544   26.1830 C   0  0  0  0  0  0  0  0  0  0  0  0
    5.8612   11.2030   26.6984 C   0  0  0  0  0  0  0  0  0  0  0  0
    6.2175    9.9128   26.3472 C   0  0  0  0  0  0  0  0  0  0  0  0
    7.2583    9.6113   25.5361 N   0  0  0  0  0  0  0  0  0  0  0  0
    7.9809   10.6516   25.0538 C   0  0  0  0  0  0  0  0  0  0  0  0
  1  2  3  0
  2  3  1  0
  3  4  1  0
  4  5  1  0
  5  6  1  0
  6  7  2  0
  6  8  2  0
  6  9  1  0
  9 10  2  0
 10 11  1  0
 11 12  2  0
 12 13  1  0
 13 14  2  0
 14  9  1  0
M  END
>  <ref_pdb>  (1153) 
A4031b

>  <subsites>  (1153) 
1 - Active Site

>  <HIPPO Compound ID>  (1153) 
8878

>  <energy_score>  (1153) 
-23.781917

>  <fragmenstein_mode>  (1153) 
expansion

>  <scratch_subdir>  (1153) 
/opt/xchem-fragalysis-2/maxwin/BulkDock/SCRATCH/512224/C15036-P275

>  <smiles>  (1153) 
N#CCCNS(=O)(=O)c1cccnc1

>  <alias>  (1153) 
C15036-P275

>  <ref_mols>  (1153) 
A4031b,A0719a

>  <inspiration_score>  (1153) 
None

>  <tags>  (1153) 
BulkDock Fragalysis export,fragmenstein_placed,openbind_a71ev2a_c1_knitwork_impure,openbind_a71ev2a_c1_scaffolds

>  <fragmenstein_outcome>  (1153) 
acceptable

>  <fragmenstein_error>  (1153) 


>  <distance_score>  (1153) 
0.884339

>  <inchikey>  (1153) 
BRFFIYADVJLQLC-UHFFFAOYSA-N

>  <name>  (1153) 
C15036-P275

>  <HIPPO Pose ID>  (1153) 
482837

>  <Energy>  (1153) 
-43.765977

>  <exports>  (1153) 
['/opt/xchem-fragalysis-2/maxwin/BulkDock/OUTPUTS/openbind_a71ev2a_c1_knitwork_impure_165VXJF.sdf', '/opt/xchem-fragalysis-2/maxwin/BulkDock/OUTPUTS/openbind_a71ev2a_c1_knitwork_impure_1B07QS4.sdf', '/opt/xchem-fragalysis-2/maxwin/BulkDock/OUTPUTS/openbind_a71ev2a_c1_knitwork_impure_1B07X5R.sdf', '/opt/xchem-fragalysis-2/maxwin/openbind-hippo/a71ev2a/openbind_a71ev2a_c1_scaffold_products.sdf', '/opt/xchem-fragalysis-2/maxwin/openbind-hippo/a71ev2a/cycle_01/bulkdock/openbind_a71ev2a_c1_scaffold_products.sdf', '/opt/xchem-fragalysis-2/maxwin/openbind-hippo/a71ev2a/cycle_01/bulkdock/openbind_a71ev2a_c1_scaffolds.sdf']

>  <fragmenstein_runtime>  (1153) 
3.03753

$$$$
C15048-P275
     RDKit          3D

 16 16  0  0  0  0  0  0  0  0999 V2000
    7.1836   16.0131   26.5930 C   0  0  0  0  0  0  0  0  0  0  0  0
    7.5847   14.5428   26.5520 C   0  0  0  0  0  0  0  0  0  0  0  0
    7.2097   13.8463   25.2205 C   0  0  1  0  0  0  0  0  0  0  0  0
    7.9972   14.4980   24.1677 N   0  0  0  0  0  0  0  0  0  0  0  0
    7.5631   14.4702   22.5653 S   0  0  0  0  0  0  0  0  0  0  0  0
    8.6314   15.1589   21.8841 O   0  0  0  0  0  0  0  0  0  0  0  0
    7.2028   13.1266   22.1959 O   0  0  0  0  0  0  0  0  0  0  0  0
    6.2170   15.4278   22.5298 N   0  0  0  0  0  0  0  0  0  0  0  0
    4.8795   14.8564   22.6694 C   0  0  0  0  0  0  0  0  0  0  0  0
    6.3706   16.8050   22.9872 C   0  0  0  0  0  0  0  0  0  0  0  0
    7.3801   12.3384   25.3694 C   0  0  0  0  0  0  0  0  0  0  0  0
    8.3350   11.5983   24.6671 C   0  0  0  0  0  0  0  0  0  0  0  0
    8.3376   10.2152   24.7880 C   0  0  0  0  0  0  0  0  0  0  0  0
    7.4946    9.5250   25.5865 N   0  0  0  0  0  0  0  0  0  0  0  0
    6.5923   10.2441   26.2771 C   0  0  0  0  0  0  0  0  0  0  0  0
    6.4989   11.6252   26.2035 C   0  0  0  0  0  0  0  0  0  0  0  0
  1  2  1  0
  3  2  1  1
  3  4  1  0
  4  5  1  0
  5  6  2  0
  5  7  2  0
  5  8  1  0
  8  9  1  0
  8 10  1  0
  3 11  1  0
 11 12  2  0
 12 13  1  0
 13 14  2  0
 14 15  1  0
 15 16  2  0
 16 11  1  0
M  END
>  <ref_pdb>  (1154) 
A4031b

>  <subsites>  (1154) 
1 - Active Site

>  <HIPPO Compound ID>  (1154) 
4256

>  <energy_score>  (1154) 
-33.830071

>  <fragmenstein_mode>  (1154) 
expansion

>  <scratch_subdir>  (1154) 
/opt/xchem-fragalysis-2/maxwin/BulkDock/SCRATCH/512224/C15048-P275

>  <smiles>  (1154) 
CC[C@@H](NS(=O)(=O)N(C)C)c1ccncc1

>  <alias>  (1154) 
C15048-P275

>  <ref_mols>  (1154) 
A4031b,A0719a

>  <inspiration_score>  (1154) 
None

>  <tags>  (1154) 
BulkDock Fragalysis export,fragmenstein_placed,openbind_a71ev2a_c1_knitwork_impure,openbind_a71ev2a_c1_scaffolds

>  <fragmenstein_outcome>  (1154) 
acceptable

>  <fragmenstein_error>  (1154) 


>  <distance_score>  (1154) 
0.795943

>  <inchikey>  (1154) 
JEOYIGKKGPMNOF-UHFFFAOYSA-N

>  <name>  (1154) 
C15048-P275

>  <HIPPO Pose ID>  (1154) 
482845

>  <Energy>  (1154) 
-172.193715

>  <exports>  (1154) 
['/opt/xchem-fragalysis-2/maxwin/BulkDock/OUTPUTS/openbind_a71ev2a_c1_knitwork_impure_165VXJF.sdf', '/opt/xchem-fragalysis-2/maxwin/BulkDock/OUTPUTS/openbind_a71ev2a_c1_knitwork_impure_1B07QS4.sdf', '/opt/xchem-fragalysis-2/maxwin/BulkDock/OUTPUTS/openbind_a71ev2a_c1_knitwork_impure_1B07X5R.sdf', '/opt/xchem-fragalysis-2/maxwin/openbind-hippo/a71ev2a/openbind_a71ev2a_c1_scaffold_products.sdf', '/opt/xchem-fragalysis-2/maxwin/openbind-hippo/a71ev2a/cycle_01/bulkdock/openbind_a71ev2a_c1_scaffold_products.sdf', '/opt/xchem-fragalysis-2/maxwin/openbind-hippo/a71ev2a/cycle_01/bulkdock/openbind_a71ev2a_c1_scaffolds.sdf']

>  <fragmenstein_runtime>  (1154) 
9.203289

$$$$
C15065-P275
     RDKit          3D

 13 13  0  0  0  0  0  0  0  0999 V2000
   11.9340   15.1676   22.9915 C   0  0  0  0  0  0  0  0  0  0  0  0
   10.9710   14.3072   23.5897 O   0  0  0  0  0  0  0  0  0  0  0  0
    9.7136   14.3966   22.9144 C   0  0  0  0  0  0  0  0  0  0  0  0
    8.8329   13.2065   23.3050 C   0  0  2  0  0  0  0  0  0  0  0  0
    7.6716   13.1414   22.4638 O   0  0  0  0  0  0  0  0  0  0  0  0
    8.3385   13.2932   24.7446 C   0  0  0  0  0  0  0  0  0  0  0  0
    8.3522   14.3409   25.3911 O   0  0  0  0  0  0  0  0  0  0  0  0
    7.6891   12.1037   25.3538 C   0  0  0  0  0  0  0  0  0  0  0  0
    6.7693   12.3106   26.3871 C   0  0  0  0  0  0  0  0  0  0  0  0
    6.1030   11.2285   26.9493 C   0  0  0  0  0  0  0  0  0  0  0  0
    6.3875    9.9663   26.4655 C   0  0  0  0  0  0  0  0  0  0  0  0
    7.2915    9.7195   25.4920 N   0  0  0  0  0  0  0  0  0  0  0  0
    7.9196   10.7956   24.9489 C   0  0  0  0  0  0  0  0  0  0  0  0
  1  2  1  0
  2  3  1  0
  3  4  1  0
  4  5  1  6
  4  6  1  0
  6  7  2  0
  6  8  1  0
  8  9  2  0
  9 10  1  0
 10 11  2  0
 11 12  1  0
 12 13  2  0
 13  8  1  0
M  END
>  <ref_pdb>  (1155) 
A4031b

>  <subsites>  (1155) 
1 - Active Site

>  <HIPPO Compound ID>  (1155) 
12403

>  <energy_score>  (1155) 
-23.305628

>  <fragmenstein_mode>  (1155) 
expansion

>  <scratch_subdir>  (1155) 
/opt/xchem-fragalysis-2/maxwin/BulkDock/SCRATCH/512224/C15065-P275

>  <smiles>  (1155) 
COC[C@H](O)C(=O)c1cccnc1

>  <alias>  (1155) 
C15065-P275

>  <ref_mols>  (1155) 
A4031b,A0719a

>  <inspiration_score>  (1155) 
None

>  <tags>  (1155) 
BulkDock Fragalysis export,fragmenstein_placed,openbind_a71ev2a_c1_knitwork_impure,openbind_a71ev2a_c1_scaffolds

>  <fragmenstein_outcome>  (1155) 
acceptable

>  <fragmenstein_error>  (1155) 


>  <distance_score>  (1155) 
0.811842

>  <inchikey>  (1155) 
CVVQZKTUYHICCC-UHFFFAOYSA-N

>  <name>  (1155) 
C15065-P275

>  <HIPPO Pose ID>  (1155) 
482857

>  <Energy>  (1155) 
78.958233

>  <exports>  (1155) 
['/opt/xchem-fragalysis-2/maxwin/BulkDock/OUTPUTS/openbind_a71ev2a_c1_knitwork_impure_165VXJF.sdf', '/opt/xchem-fragalysis-2/maxwin/BulkDock/OUTPUTS/openbind_a71ev2a_c1_knitwork_impure_1B07QS4.sdf', '/opt/xchem-fragalysis-2/maxwin/BulkDock/OUTPUTS/openbind_a71ev2a_c1_knitwork_impure_1B07X5R.sdf', '/opt/xchem-fragalysis-2/maxwin/openbind-hippo/a71ev2a/openbind_a71ev2a_c1_scaffold_products.sdf', '/opt/xchem-fragalysis-2/maxwin/openbind-hippo/a71ev2a/cycle_01/bulkdock/openbind_a71ev2a_c1_scaffold_products.sdf', '/opt/xchem-fragalysis-2/maxwin/openbind-hippo/a71ev2a/cycle_01/bulkdock/openbind_a71ev2a_c1_scaffolds.sdf']

>  <fragmenstein_runtime>  (1155) 
9.313992

$$$$
C8159-P275
     RDKit          3D

 15 15  0  0  0  0  0  0  0  0999 V2000
    7.8096   14.8130   25.5950 C   0  0  0  0  0  0  0  0  0  0  0  0
    8.4406   13.5420   25.0301 C   0  0  2  0  0  0  0  0  0  0  0  0
    8.8221   13.6640   23.6061 N   0  0  0  0  0  0  0  0  0  0  0  0
    9.3067   15.0517   22.8154 S   0  0  0  0  0  0  0  0  0  0  0  0
    9.4023   14.6663   21.4256 O   0  0  0  0  0  0  0  0  0  0  0  0
    8.4475   16.1432   23.2054 O   0  0  0  0  0  0  0  0  0  0  0  0
   10.9748   15.3712   23.4180 C   0  0  0  0  0  0  0  0  0  0  0  0
   11.9206   14.2287   23.0945 C   0  0  0  0  0  0  0  0  0  0  0  0
   11.0389   15.7065   24.8987 C   0  0  0  0  0  0  0  0  0  0  0  0
    7.4458   12.3566   25.1675 C   0  0  2  0  0  0  0  0  0  0  0  0
    6.6624   12.3487   26.4960 C   0  0  0  0  0  0  0  0  0  0  0  0
    5.7710   11.1283   26.6423 C   0  0  0  0  0  0  0  0  0  0  0  0
    6.5036    9.8370   26.3327 C   0  0  0  0  0  0  0  0  0  0  0  0
    7.2381    9.8762   25.0802 N   0  0  0  0  0  0  0  0  0  0  0  0
    8.1459   11.0076   24.9750 C   0  0  0  0  0  0  0  0  0  0  0  0
  2  1  1  6
  2  3  1  0
  3  4  1  0
  4  5  2  0
  4  6  2  0
  4  7  1  0
  7  8  1  0
  7  9  1  0
  2 10  1  0
 10 11  1  1
 11 12  1  0
 12 13  1  0
 13 14  1  0
 14 15  1  0
 15 10  1  0
M  END
>  <ref_pdb>  (1156) 
A4031b

>  <subsites>  (1156) 
1 - Active Site

>  <HIPPO Compound ID>  (1156) 
2479

>  <energy_score>  (1156) 
-42.181439

>  <fragmenstein_mode>  (1156) 
expansion

>  <scratch_subdir>  (1156) 
/opt/xchem-fragalysis-2/maxwin/BulkDock/SCRATCH/512224/C8159-P275

>  <smiles>  (1156) 
CC(C)S(=O)(=O)N[C@@H](C)[C@@H]1CCCNC1

>  <alias>  (1156) 
C8159-P275

>  <ref_mols>  (1156) 
A4031b,A0719a

>  <inspiration_score>  (1156) 
None

>  <tags>  (1156) 
BulkDock Fragalysis export,fragmenstein_placed,openbind_a71ev2a_c1_knitwork_impure,openbind_a71ev2a_c1_scaffolds

>  <fragmenstein_outcome>  (1156) 
acceptable

>  <fragmenstein_error>  (1156) 


>  <distance_score>  (1156) 
0.950113

>  <inchikey>  (1156) 
RAFCYCDJOWOOAS-UHFFFAOYSA-N

>  <name>  (1156) 
C8159-P275

>  <HIPPO Pose ID>  (1156) 
482879

>  <Energy>  (1156) 
-49.396697

>  <exports>  (1156) 
['/opt/xchem-fragalysis-2/maxwin/BulkDock/OUTPUTS/openbind_a71ev2a_c1_knitwork_impure_165VXJF.sdf', '/opt/xchem-fragalysis-2/maxwin/BulkDock/OUTPUTS/openbind_a71ev2a_c1_knitwork_impure_1B07QS4.sdf', '/opt/xchem-fragalysis-2/maxwin/BulkDock/OUTPUTS/openbind_a71ev2a_c1_knitwork_impure_1B07X5R.sdf', '/opt/xchem-fragalysis-2/maxwin/openbind-hippo/a71ev2a/openbind_a71ev2a_c1_scaffold_products.sdf', '/opt/xchem-fragalysis-2/maxwin/openbind-hippo/a71ev2a/cycle_01/bulkdock/openbind_a71ev2a_c1_scaffold_products.sdf', '/opt/xchem-fragalysis-2/maxwin/openbind-hippo/a71ev2a/cycle_01/bulkdock/openbind_a71ev2a_c1_scaffolds.sdf']

>  <fragmenstein_runtime>  (1156) 
6.63385

$$$$
C2382-P321
     RDKit          3D

 15 15  0  0  0  0  0  0  0  0999 V2000
    6.7231   12.0025   26.2906 C   0  0  0  0  0  0  0  0  0  0  0  0
    7.4429   11.4629   25.0548 C   0  0  0  0  0  0  0  0  0  0  0  0
    7.6490    9.9614   25.1829 C   0  0  0  0  0  0  0  0  0  0  0  0
    8.7587   12.1577   24.7037 C   0  0  0  0  0  0  0  0  0  0  0  0
    8.7257   13.6567   24.9138 C   0  0  0  0  0  0  0  0  0  0  0  0
    8.9903   14.0875   26.0453 O   0  0  0  0  0  0  0  0  0  0  0  0
    8.4122   14.6087   23.7165 C   0  0  0  0  0  0  0  0  0  0  0  0
    7.2383   14.0326   22.9103 C   0  0  0  0  0  0  0  0  0  0  0  0
    7.9451   15.9645   24.2973 C   0  0  0  0  0  0  0  0  0  0  0  0
    9.6279   14.7071   22.8580 N   0  0  0  0  0  0  0  0  0  0  0  0
   10.8142   15.1905   23.5850 C   0  0  0  0  0  0  0  0  0  0  0  0
   12.0543   15.0593   22.7115 C   0  0  0  0  0  0  0  0  0  0  0  0
   11.9163   15.8788   21.4395 C   0  0  0  0  0  0  0  0  0  0  0  0
   10.6491   15.4735   20.7077 C   0  0  0  0  0  0  0  0  0  0  0  0
    9.4327   15.5203   21.6345 C   0  0  0  0  0  0  0  0  0  0  0  0
  1  2  1  0
  2  3  1  0
  2  4  1  0
  4  5  1  0
  5  6  2  0
  5  7  1  0
  7  8  1  0
  7  9  1  0
  7 10  1  0
 10 11  1  0
 11 12  1  0
 12 13  1  0
 13 14  1  0
 14 15  1  0
 15 10  1  0
M  END
>  <ref_pdb>  (1157) 
A4350a

>  <subsites>  (1157) 
1 - Active Site

>  <HIPPO Compound ID>  (1157) 
22011

>  <energy_score>  (1157) 
-46.559532

>  <fragmenstein_mode>  (1157) 
expansion

>  <scratch_subdir>  (1157) 
/opt/xchem-fragalysis-2/maxwin/BulkDock/SCRATCH/512224/C2382-P321

>  <smiles>  (1157) 
CC(C)CC(=O)C(C)(C)N1CCCCC1

>  <alias>  (1157) 
C2382-P321

>  <ref_mols>  (1157) 
A4350a,A1779a

>  <inspiration_score>  (1157) 
None

>  <tags>  (1157) 
BulkDock Fragalysis export,fragmenstein_placed,openbind_a71ev2a_c1_knitwork_impure,openbind_a71ev2a_c1_scaffolds

>  <fragmenstein_outcome>  (1157) 
acceptable

>  <fragmenstein_error>  (1157) 


>  <distance_score>  (1157) 
0.925378

>  <inchikey>  (1157) 
VKVCIQZOMHUULA-UHFFFAOYSA-N

>  <name>  (1157) 
C2382-P321

>  <HIPPO Pose ID>  (1157) 
483418

>  <Energy>  (1157) 
49.37446

>  <exports>  (1157) 
['/opt/xchem-fragalysis-2/maxwin/BulkDock/OUTPUTS/openbind_a71ev2a_c1_knitwork_impure_165VXJF.sdf', '/opt/xchem-fragalysis-2/maxwin/BulkDock/OUTPUTS/openbind_a71ev2a_c1_knitwork_impure_1B07QS4.sdf', '/opt/xchem-fragalysis-2/maxwin/BulkDock/OUTPUTS/openbind_a71ev2a_c1_knitwork_impure_1B07X5R.sdf', '/opt/xchem-fragalysis-2/maxwin/openbind-hippo/a71ev2a/openbind_a71ev2a_c1_scaffold_products.sdf', '/opt/xchem-fragalysis-2/maxwin/openbind-hippo/a71ev2a/cycle_01/bulkdock/openbind_a71ev2a_c1_scaffold_products.sdf', '/opt/xchem-fragalysis-2/maxwin/openbind-hippo/a71ev2a/cycle_01/bulkdock/openbind_a71ev2a_c1_scaffolds.sdf']

>  <fragmenstein_runtime>  (1157) 
8.074564

$$$$
C10375-P497
     RDKit          3D

 21 24  0  0  0  0  0  0  0  0999 V2000
   20.3429   -2.8614   27.4479 C   0  0  0  0  0  0  0  0  0  0  0  0
   21.4815   -2.0972   27.7100 C   0  0  0  0  0  0  0  0  0  0  0  0
   22.0575   -1.3327   26.6973 C   0  0  0  0  0  0  0  0  0  0  0  0
   23.1651   -0.5401   26.8114 O   0  0  0  0  0  0  0  0  0  0  0  0
   23.8616   -0.5089   28.0597 C   0  0  0  0  0  0  0  0  0  0  0  0
   23.2401    0.5045   29.0179 C   0  0  0  0  0  0  0  0  0  0  0  0
   23.6934    1.8620   28.4863 C   0  0  0  0  0  0  0  0  0  0  0  0
   24.9924    1.6048   27.7250 C   0  0  0  0  0  0  0  0  0  0  0  0
   25.2408    0.1004   27.8085 C   0  0  0  0  0  0  0  0  0  0  0  0
   21.4766   -1.3314   25.4235 C   0  0  0  0  0  0  0  0  0  0  0  0
   20.3236   -2.0809   25.1475 C   0  0  0  0  0  0  0  0  0  0  0  0
   19.6832   -2.0544   23.8136 C   0  0  0  0  0  0  0  0  0  0  0  0
   19.2263   -3.2663   23.1136 C   0  0  0  0  0  0  0  0  0  0  0  0
   18.5775   -3.2178   21.9331 C   0  0  0  0  0  0  0  0  0  0  0  0
   18.3214   -1.9596   21.3294 C   0  0  0  0  0  0  0  0  0  0  0  0
   17.6867   -1.5958   20.2349 N   0  0  0  0  0  0  0  0  0  0  0  0
   17.7332   -0.2200   20.1589 N   0  0  0  0  0  0  0  0  0  0  0  0
   18.4087    0.2162   21.2008 C   0  0  0  0  0  0  0  0  0  0  0  0
   18.7868   -0.8352   21.9885 N   0  0  0  0  0  0  0  0  0  0  0  0
   19.4527   -0.8668   23.2093 C   0  0  0  0  0  0  0  0  0  0  0  0
   19.7711   -2.8562   26.1750 C   0  0  0  0  0  0  0  0  0  0  0  0
  1  2  2  0
  2  3  1  0
  3  4  1  0
  4  5  1  0
  5  6  1  0
  6  7  1  0
  7  8  1  0
  8  9  1  0
  3 10  2  0
 10 11  1  0
 11 12  1  0
 12 13  1  0
 13 14  2  0
 14 15  1  0
 15 16  2  0
 16 17  1  0
 17 18  2  0
 18 19  1  0
 19 20  1  0
 11 21  2  0
 21  1  1  0
  9  5  1  0
 20 12  2  0
 19 15  1  0
M  END
>  <ref_pdb>  (1158) 
A4877b

>  <subsites>  (1158) 
1 - Active Site,2 - A3977/A/202/1

>  <HIPPO Compound ID>  (1158) 
11987

>  <energy_score>  (1158) 
-24.969333

>  <fragmenstein_mode>  (1158) 
expansion

>  <scratch_subdir>  (1158) 
/opt/xchem-fragalysis-2/maxwin/BulkDock/SCRATCH/512224/C10375-P497

>  <smiles>  (1158) 
c1cc(OC2CCCC2)cc(-c2ccc3nncn3c2)c1

>  <alias>  (1158) 
C10375-P497

>  <ref_mols>  (1158) 
A4877b,A1293a

>  <inspiration_score>  (1158) 
None

>  <tags>  (1158) 
BulkDock Fragalysis export,fragmenstein_placed,openbind_a71ev2a_c1_knitwork_impure,openbind_a71ev2a_c1_scaffolds

>  <fragmenstein_outcome>  (1158) 
acceptable

>  <fragmenstein_error>  (1158) 


>  <distance_score>  (1158) 
0.304047

>  <inchikey>  (1158) 
JCQQJJVJANIEDC-UHFFFAOYSA-N

>  <name>  (1158) 
C10375-P497

>  <HIPPO Pose ID>  (1158) 
483497

>  <Energy>  (1158) 
50.149987

>  <exports>  (1158) 
['/opt/xchem-fragalysis-2/maxwin/BulkDock/OUTPUTS/openbind_a71ev2a_c1_knitwork_impure_165VXJF.sdf', '/opt/xchem-fragalysis-2/maxwin/BulkDock/OUTPUTS/openbind_a71ev2a_c1_knitwork_impure_1B07QS4.sdf', '/opt/xchem-fragalysis-2/maxwin/BulkDock/OUTPUTS/openbind_a71ev2a_c1_knitwork_impure_1B07X5R.sdf', '/opt/xchem-fragalysis-2/maxwin/openbind-hippo/a71ev2a/openbind_a71ev2a_c1_scaffold_products.sdf', '/opt/xchem-fragalysis-2/maxwin/openbind-hippo/a71ev2a/cycle_01/bulkdock/openbind_a71ev2a_c1_scaffold_products.sdf', '/opt/xchem-fragalysis-2/maxwin/openbind-hippo/a71ev2a/cycle_01/bulkdock/openbind_a71ev2a_c1_scaffolds.sdf']

>  <fragmenstein_runtime>  (1158) 
4.6919

$$$$
C7372-P182
     RDKit          3D

 19 19  0  0  0  0  0  0  0  0999 V2000
    8.1356   14.9897   26.2745 C   0  0  0  0  0  0  0  0  0  0  0  0
    7.5307   13.9961   25.3194 C   0  0  0  0  0  0  0  0  0  0  0  0
    7.5366   14.2032   24.1062 O   0  0  0  0  0  0  0  0  0  0  0  0
    6.8637   12.7862   25.9436 C   0  0  0  0  0  0  0  0  0  0  0  0
    6.8846   11.5460   25.0724 C   0  0  0  0  0  0  0  0  0  0  0  0
    8.0087   10.5990   25.4042 C   0  0  0  0  0  0  0  0  0  0  0  0
    8.4582    9.6646   24.3000 C   0  0  0  0  0  0  0  0  0  0  0  0
    9.7127   10.0575   23.5601 C   0  0  0  0  0  0  0  0  0  0  0  0
    9.6755   11.4659   23.0200 C   0  0  0  0  0  0  0  0  0  0  0  0
   10.4435   12.5545   23.7589 C   0  0  0  0  0  0  0  0  0  0  0  0
   10.3093   12.8080   24.8863 O   0  0  0  0  0  0  0  0  0  0  0  0
   11.2988   13.2380   22.6785 N   0  0  0  0  0  0  0  0  0  0  0  0
   12.0889   14.4241   22.7352 C   0  0  0  0  0  0  0  0  0  0  0  0
   12.3672   14.9156   21.3346 C   0  0  0  0  0  0  0  0  0  0  0  0
   11.1426   15.3346   20.6267 C   0  0  0  0  0  0  0  0  0  0  0  0
   10.7742   15.0586   19.3387 C   0  0  0  0  0  0  0  0  0  0  0  0
    9.6711   15.7959   19.0411 O   0  0  0  0  0  0  0  0  0  0  0  0
    9.4044   16.4548   20.2079 C   0  0  0  0  0  0  0  0  0  0  0  0
   10.2375   16.1885   21.1824 N   0  0  0  0  0  0  0  0  0  0  0  0
  1  2  1  0
  2  3  2  0
  2  4  1  0
  4  5  1  0
  5  6  1  0
  6  7  1  0
  7  8  1  0
  8  9  1  0
  9 10  1  0
 10 11  2  0
 10 12  1  0
 12 13  1  0
 13 14  1  0
 14 15  1  0
 15 16  2  0
 16 17  1  0
 17 18  1  0
 18 19  2  0
 19 15  1  0
M  END
>  <ref_pdb>  (1159) 
A3435a

>  <subsites>  (1159) 
1 - Active Site

>  <HIPPO Compound ID>  (1159) 
1373

>  <energy_score>  (1159) 
-1.243629

>  <fragmenstein_mode>  (1159) 
expansion

>  <scratch_subdir>  (1159) 
/opt/xchem-fragalysis-2/maxwin/BulkDock/SCRATCH/512224/C7372-P182

>  <smiles>  (1159) 
CC(=O)CCCCCCC(=O)NCCc1cocn1

>  <alias>  (1159) 
C7372-P182

>  <ref_mols>  (1159) 
A3623a,A3435a

>  <inspiration_score>  (1159) 
None

>  <tags>  (1159) 
BulkDock Fragalysis export,fragmenstein_placed,openbind_a71ev2a_c1_knitwork_impure,openbind_a71ev2a_c1_scaffolds

>  <fragmenstein_outcome>  (1159) 
acceptable

>  <fragmenstein_error>  (1159) 


>  <distance_score>  (1159) 
0.999436

>  <inchikey>  (1159) 
HPZYIMYCTDBYEK-UHFFFAOYSA-N

>  <name>  (1159) 
C7372-P182

>  <HIPPO Pose ID>  (1159) 
483655

>  <Energy>  (1159) 
31.657193

>  <exports>  (1159) 
['/opt/xchem-fragalysis-2/maxwin/BulkDock/OUTPUTS/openbind_a71ev2a_c1_knitwork_impure_165VXJF.sdf', '/opt/xchem-fragalysis-2/maxwin/BulkDock/OUTPUTS/openbind_a71ev2a_c1_knitwork_impure_1B07QS4.sdf', '/opt/xchem-fragalysis-2/maxwin/BulkDock/OUTPUTS/openbind_a71ev2a_c1_knitwork_impure_1B07X5R.sdf', '/opt/xchem-fragalysis-2/maxwin/openbind-hippo/a71ev2a/openbind_a71ev2a_c1_scaffold_products.sdf', '/opt/xchem-fragalysis-2/maxwin/openbind-hippo/a71ev2a/cycle_01/bulkdock/openbind_a71ev2a_c1_scaffold_products.sdf', '/opt/xchem-fragalysis-2/maxwin/openbind-hippo/a71ev2a/cycle_01/bulkdock/openbind_a71ev2a_c1_scaffolds.sdf']

>  <fragmenstein_runtime>  (1159) 
4.75253

$$$$
C1823-P158
     RDKit          3D

 12 13  0  0  0  0  0  0  0  0999 V2000
    7.3104   12.3492   25.5757 C   0  0  0  0  0  0  0  0  0  0  0  0
    7.9769   13.1890   24.7022 C   0  0  0  0  0  0  0  0  0  0  0  0
    8.8784   12.6324   23.7891 C   0  0  0  0  0  0  0  0  0  0  0  0
    9.5793   13.4703   22.7468 C   0  0  2  0  0  0  0  0  0  0  0  0
   10.6016   14.4420   23.3393 C   0  0  0  0  0  0  0  0  0  0  0  0
   11.3876   15.1447   22.2311 C   0  0  0  0  0  0  0  0  0  0  0  0
   10.7096   15.0372   20.8708 C   0  0  0  0  0  0  0  0  0  0  0  0
    9.1939   15.1157   20.9794 C   0  0  0  0  0  0  0  0  0  0  0  0
    8.5926   14.1433   21.8981 N   0  0  0  0  0  0  0  0  0  0  0  0
    9.0742   11.2509   23.8074 C   0  0  0  0  0  0  0  0  0  0  0  0
    8.3760   10.5030   24.7319 C   0  0  0  0  0  0  0  0  0  0  0  0
    7.5145   11.0212   25.6323 N   0  0  0  0  0  0  0  0  0  0  0  0
  1  2  2  0
  2  3  1  0
  4  3  1  1
  4  5  1  0
  5  6  1  0
  6  7  1  0
  7  8  1  0
  8  9  1  0
  3 10  2  0
 10 11  1  0
 11 12  2  0
 12  1  1  0
  9  4  1  0
M  END
>  <ref_pdb>  (1160) 
A3222a

>  <subsites>  (1160) 
1 - Active Site

>  <HIPPO Compound ID>  (1160) 
2418

>  <energy_score>  (1160) 
-18.199877

>  <fragmenstein_mode>  (1160) 
expansion

>  <scratch_subdir>  (1160) 
/opt/xchem-fragalysis-2/maxwin/BulkDock/SCRATCH/512224/C1823-P158

>  <smiles>  (1160) 
c1cc([C@@H]2CCCCN2)ccn1

>  <alias>  (1160) 
C1823-P158

>  <ref_mols>  (1160) 
A3623a,A3222a

>  <inspiration_score>  (1160) 
None

>  <tags>  (1160) 
BulkDock Fragalysis export,fragmenstein_placed,openbind_a71ev2a_c1_knitwork_impure,openbind_a71ev2a_c1_scaffolds

>  <fragmenstein_outcome>  (1160) 
acceptable

>  <fragmenstein_error>  (1160) 


>  <distance_score>  (1160) 
0.8457

>  <inchikey>  (1160) 
YKFCDWMBODQRLV-UHFFFAOYSA-N

>  <name>  (1160) 
C1823-P158

>  <HIPPO Pose ID>  (1160) 
484288

>  <Energy>  (1160) 
18.776661

>  <exports>  (1160) 
['/opt/xchem-fragalysis-2/maxwin/BulkDock/OUTPUTS/openbind_a71ev2a_c1_knitwork_impure_165VXJF.sdf', '/opt/xchem-fragalysis-2/maxwin/BulkDock/OUTPUTS/openbind_a71ev2a_c1_knitwork_impure_1B07QS4.sdf', '/opt/xchem-fragalysis-2/maxwin/BulkDock/OUTPUTS/openbind_a71ev2a_c1_knitwork_impure_1B07X5R.sdf', '/opt/xchem-fragalysis-2/maxwin/openbind-hippo/a71ev2a/openbind_a71ev2a_c1_scaffold_products.sdf', '/opt/xchem-fragalysis-2/maxwin/openbind-hippo/a71ev2a/cycle_01/bulkdock/openbind_a71ev2a_c1_scaffold_products.sdf', '/opt/xchem-fragalysis-2/maxwin/openbind-hippo/a71ev2a/cycle_01/bulkdock/openbind_a71ev2a_c1_scaffolds.sdf']

>  <fragmenstein_runtime>  (1160) 
3.106103

$$$$
C8437-P343
     RDKit          3D

 22 24  0  0  0  0  0  0  0  0999 V2000
   10.5037   16.0511   18.8408 N   0  0  0  0  0  0  0  0  0  0  0  0
   10.5151   15.4705   19.8428 C   0  0  0  0  0  0  0  0  0  0  0  0
   10.4680   14.8602   21.1798 C   0  0  1  0  0  0  0  0  0  0  0  0
   11.5898   15.5006   22.0129 C   0  0  0  0  0  0  0  0  0  0  0  0
   11.3243   15.3842   23.4993 C   0  0  0  0  0  0  0  0  0  0  0  0
   10.0326   15.9460   23.9081 N   0  0  0  0  0  0  0  0  0  0  0  0
    9.1696   16.2830   22.7515 C   0  0  0  0  0  0  0  0  0  0  0  0
    9.0657   15.1122   21.7649 C   0  0  2  0  0  0  0  0  0  0  0  0
    8.4267   14.0396   22.5231 N   0  0  0  0  0  0  0  0  0  0  0  0
    9.0360   12.8318   23.2509 C   0  0  0  0  0  0  0  0  0  0  0  0
   10.1350   12.4559   23.2979 O   0  0  0  0  0  0  0  0  0  0  0  0
    8.0075   12.1556   24.0684 C   0  0  0  0  0  0  0  0  0  0  0  0
    7.9980   10.7681   24.2292 C   0  0  0  0  0  0  0  0  0  0  0  0
    7.1501   10.1934   25.1814 C   0  0  0  0  0  0  0  0  0  0  0  0
    6.3696   11.0125   25.9971 C   0  0  0  0  0  0  0  0  0  0  0  0
    6.3899   12.3865   25.8002 C   0  0  0  0  0  0  0  0  0  0  0  0
    7.1897   12.9762   24.8528 C   0  0  0  0  0  0  0  0  0  0  0  0
    5.5478   13.1576   26.6341 N   0  0  0  0  0  0  0  0  0  0  0  0
    4.8216   12.1009   27.7586 S   0  0  0  0  0  0  0  0  0  0  0  0
    5.3924   12.3766   29.0591 O   0  0  0  0  0  0  0  0  0  0  0  0
    3.3980   12.1363   27.5115 O   0  0  0  0  0  0  0  0  0  0  0  0
    5.5133   10.5664   27.1360 C   0  0  0  0  0  0  0  0  0  0  0  0
  1  2  3  0
  3  2  1  6
  3  4  1  0
  4  5  1  0
  5  6  1  0
  6  7  1  0
  7  8  1  0
  8  9  1  1
  9 10  1  0
 10 11  2  0
 10 12  1  0
 12 13  2  0
 13 14  1  0
 14 15  2  0
 15 16  1  0
 16 17  2  0
 16 18  1  0
 18 19  1  0
 19 20  2  0
 19 21  2  0
 19 22  1  0
  8  3  1  0
 17 12  1  0
 22 15  1  0
M  END
>  <ref_pdb>  (1161) 
A4274a

>  <subsites>  (1161) 
1 - Active Site

>  <HIPPO Compound ID>  (1161) 
29842

>  <energy_score>  (1161) 
-10.02003

>  <fragmenstein_mode>  (1161) 
expansion

>  <scratch_subdir>  (1161) 
/opt/xchem-fragalysis-2/maxwin/BulkDock/SCRATCH/512224/C8437-P343

>  <smiles>  (1161) 
N#C[C@H]1CCNC[C@@H]1NC(=O)c1ccc2c(c1)NS(=O)(=O)C2

>  <alias>  (1161) 
C8437-P343

>  <ref_mols>  (1161) 
A2513a,A4274a

>  <inspiration_score>  (1161) 
None

>  <tags>  (1161) 
BulkDock Fragalysis export,fragmenstein_placed,openbind_a71ev2a_c1_knitwork_impure,openbind_a71ev2a_c1_scaffolds

>  <fragmenstein_outcome>  (1161) 
acceptable

>  <fragmenstein_error>  (1161) 


>  <distance_score>  (1161) 
0.995124

>  <inchikey>  (1161) 
JTMLSSUHXRBMOA-UHFFFAOYSA-N

>  <name>  (1161) 
C8437-P343

>  <HIPPO Pose ID>  (1161) 
484496

>  <Energy>  (1161) 
15.747392

>  <exports>  (1161) 
['/opt/xchem-fragalysis-2/maxwin/BulkDock/OUTPUTS/openbind_a71ev2a_c1_knitwork_impure_165VXJF.sdf', '/opt/xchem-fragalysis-2/maxwin/BulkDock/OUTPUTS/openbind_a71ev2a_c1_knitwork_impure_1B07QS4.sdf', '/opt/xchem-fragalysis-2/maxwin/BulkDock/OUTPUTS/openbind_a71ev2a_c1_knitwork_impure_1B07X5R.sdf', '/opt/xchem-fragalysis-2/maxwin/openbind-hippo/a71ev2a/openbind_a71ev2a_c1_scaffold_products.sdf', '/opt/xchem-fragalysis-2/maxwin/openbind-hippo/a71ev2a/cycle_01/bulkdock/openbind_a71ev2a_c1_scaffold_products.sdf', '/opt/xchem-fragalysis-2/maxwin/openbind-hippo/a71ev2a/cycle_01/bulkdock/openbind_a71ev2a_c1_scaffolds.sdf']

>  <fragmenstein_runtime>  (1161) 
5.457113

$$$$
C15183-P151
     RDKit          3D

 15 17  0  0  0  0  0  0  0  0999 V2000
    8.9475   11.1964   24.1380 C   0  0  0  0  0  0  0  0  0  0  0  0
    8.7825    9.8070   24.2411 C   0  0  0  0  0  0  0  0  0  0  0  0
    7.8131    9.4774   25.0935 N   0  0  0  0  0  0  0  0  0  0  0  0
    7.3138   10.6611   25.5451 N   0  0  0  0  0  0  0  0  0  0  0  0
    6.2282   10.6748   26.4839 C   0  0  0  0  0  0  0  0  0  0  0  0
    5.8039   11.8550   27.0744 C   0  0  0  0  0  0  0  0  0  0  0  0
    4.7869   11.7880   28.0327 C   0  0  0  0  0  0  0  0  0  0  0  0
    4.1975   10.5608   28.3651 C   0  0  0  0  0  0  0  0  0  0  0  0
    4.6384    9.4346   27.6873 C   0  0  0  0  0  0  0  0  0  0  0  0
    5.6425    9.4857   26.7821 N   0  0  0  0  0  0  0  0  0  0  0  0
    3.9977    8.0902   27.9127 C   0  0  0  0  0  0  0  0  0  0  0  0
    2.6140    8.1719   28.5509 C   0  0  0  0  0  0  0  0  0  0  0  0
    2.6625    9.0912   29.7624 C   0  0  0  0  0  0  0  0  0  0  0  0
    3.0486   10.5044   29.3346 C   0  0  0  0  0  0  0  0  0  0  0  0
    8.0033   11.7243   24.9898 C   0  0  0  0  0  0  0  0  0  0  0  0
  1  2  1  0
  2  3  2  0
  3  4  1  0
  4  5  1  0
  5  6  2  0
  6  7  1  0
  7  8  2  0
  8  9  1  0
  9 10  2  0
  9 11  1  0
 11 12  1  0
 12 13  1  0
 13 14  1  0
  4 15  1  0
 15  1  2  0
 10  5  1  0
 14  8  1  0
M  END
>  <ref_pdb>  (1162) 
A3194a

>  <subsites>  (1162) 
1 - Active Site

>  <HIPPO Compound ID>  (1162) 
11989

>  <energy_score>  (1162) 
-29.324729

>  <fragmenstein_mode>  (1162) 
expansion

>  <scratch_subdir>  (1162) 
/opt/xchem-fragalysis-2/maxwin/BulkDock/SCRATCH/512224/C15183-P151

>  <smiles>  (1162) 
c1cnn(-c2ccc3c(n2)CCCC3)c1

>  <alias>  (1162) 
C15183-P151

>  <ref_mols>  (1162) 
A0556a,A3194a

>  <inspiration_score>  (1162) 
None

>  <tags>  (1162) 
BulkDock Fragalysis export,fragmenstein_placed,openbind_a71ev2a_c1_knitwork_impure,openbind_a71ev2a_c1_scaffolds

>  <fragmenstein_outcome>  (1162) 
acceptable

>  <fragmenstein_error>  (1162) 


>  <distance_score>  (1162) 
0.990988

>  <inchikey>  (1162) 
LTXRWJYJSXHLHR-UHFFFAOYSA-N

>  <name>  (1162) 
C15183-P151

>  <HIPPO Pose ID>  (1162) 
484573

>  <Energy>  (1162) 
75.069351

>  <exports>  (1162) 
['/opt/xchem-fragalysis-2/maxwin/BulkDock/OUTPUTS/openbind_a71ev2a_c1_knitwork_impure_165VXJF.sdf', '/opt/xchem-fragalysis-2/maxwin/BulkDock/OUTPUTS/openbind_a71ev2a_c1_knitwork_impure_1B07QS4.sdf', '/opt/xchem-fragalysis-2/maxwin/BulkDock/OUTPUTS/openbind_a71ev2a_c1_knitwork_impure_1B07X5R.sdf', '/opt/xchem-fragalysis-2/maxwin/openbind-hippo/a71ev2a/openbind_a71ev2a_c1_scaffold_products.sdf', '/opt/xchem-fragalysis-2/maxwin/openbind-hippo/a71ev2a/cycle_01/bulkdock/openbind_a71ev2a_c1_scaffold_products.sdf', '/opt/xchem-fragalysis-2/maxwin/openbind-hippo/a71ev2a/cycle_01/bulkdock/openbind_a71ev2a_c1_scaffolds.sdf']

>  <fragmenstein_runtime>  (1162) 
2.470395

$$$$
C15184-P151
     RDKit          3D

 14 16  0  0  0  0  0  0  0  0999 V2000
    8.9773   11.2929   24.0721 C   0  0  0  0  0  0  0  0  0  0  0  0
    8.8650    9.8993   24.1889 C   0  0  0  0  0  0  0  0  0  0  0  0
    7.9248    9.5427   25.0616 N   0  0  0  0  0  0  0  0  0  0  0  0
    7.3728   10.7109   25.4932 N   0  0  0  0  0  0  0  0  0  0  0  0
    6.2881   10.6894   26.4329 C   0  0  0  0  0  0  0  0  0  0  0  0
    5.7795   11.8711   26.9822 C   0  0  0  0  0  0  0  0  0  0  0  0
    4.7526   11.7945   27.9362 C   0  0  0  0  0  0  0  0  0  0  0  0
    4.2562   10.5478   28.2706 C   0  0  0  0  0  0  0  0  0  0  0  0
    4.7937    9.4332   27.6618 C   0  0  0  0  0  0  0  0  0  0  0  0
    5.7925    9.4694   26.7732 N   0  0  0  0  0  0  0  0  0  0  0  0
    4.0854    8.1833   28.0970 C   0  0  0  0  0  0  0  0  0  0  0  0
    2.8044    8.7642   28.7063 C   0  0  0  0  0  0  0  0  0  0  0  0
    3.1667   10.1648   29.2151 C   0  0  0  0  0  0  0  0  0  0  0  0
    8.0173   11.7938   24.9229 C   0  0  0  0  0  0  0  0  0  0  0  0
  1  2  1  0
  2  3  2  0
  3  4  1  0
  4  5  1  0
  5  6  2  0
  6  7  1  0
  7  8  2  0
  8  9  1  0
  9 10  2  0
  9 11  1  0
 11 12  1  0
 12 13  1  0
  4 14  1  0
 14  1  2  0
 10  5  1  0
 13  8  1  0
M  END
>  <ref_pdb>  (1163) 
A3194a

>  <subsites>  (1163) 
1 - Active Site

>  <HIPPO Compound ID>  (1163) 
1418

>  <energy_score>  (1163) 
-18.489805

>  <fragmenstein_mode>  (1163) 
expansion

>  <scratch_subdir>  (1163) 
/opt/xchem-fragalysis-2/maxwin/BulkDock/SCRATCH/512224/C15184-P151

>  <smiles>  (1163) 
c1cnn(-c2ccc3c(n2)CCC3)c1

>  <alias>  (1163) 
C15184-P151

>  <ref_mols>  (1163) 
A0556a,A3194a

>  <inspiration_score>  (1163) 
None

>  <tags>  (1163) 
BulkDock Fragalysis export,fragmenstein_placed,openbind_a71ev2a_c1_knitwork_impure,openbind_a71ev2a_c1_scaffolds

>  <fragmenstein_outcome>  (1163) 
acceptable

>  <fragmenstein_error>  (1163) 


>  <distance_score>  (1163) 
0.930895

>  <inchikey>  (1163) 
GSFKQOAHRINDLP-UHFFFAOYSA-N

>  <name>  (1163) 
C15184-P151

>  <HIPPO Pose ID>  (1163) 
484574

>  <Energy>  (1163) 
77.981662

>  <exports>  (1163) 
['/opt/xchem-fragalysis-2/maxwin/BulkDock/OUTPUTS/openbind_a71ev2a_c1_knitwork_impure_165VXJF.sdf', '/opt/xchem-fragalysis-2/maxwin/BulkDock/OUTPUTS/openbind_a71ev2a_c1_knitwork_impure_1B07QS4.sdf', '/opt/xchem-fragalysis-2/maxwin/BulkDock/OUTPUTS/openbind_a71ev2a_c1_knitwork_impure_1B07X5R.sdf', '/opt/xchem-fragalysis-2/maxwin/openbind-hippo/a71ev2a/openbind_a71ev2a_c1_scaffold_products.sdf', '/opt/xchem-fragalysis-2/maxwin/openbind-hippo/a71ev2a/cycle_01/bulkdock/openbind_a71ev2a_c1_scaffold_products.sdf', '/opt/xchem-fragalysis-2/maxwin/openbind-hippo/a71ev2a/cycle_01/bulkdock/openbind_a71ev2a_c1_scaffolds.sdf']

>  <fragmenstein_runtime>  (1163) 
1.939682

$$$$
C31102-P120
     RDKit          3D

 17 17  0  0  0  0  0  0  0  0999 V2000
    3.4763    8.4499   28.6726 C   0  0  0  0  0  0  0  0  0  0  0  0
    3.4727    9.9696   28.6641 C   0  0  1  0  0  0  0  0  0  0  0  0
    3.1107   10.6221   30.3189 S   0  0  0  0  0  0  0  0  0  0  0  0
    1.3457   10.6508   30.1445 C   0  0  0  0  0  0  0  0  0  0  0  0
    0.7446   10.8863   31.3267 F   0  0  0  0  0  0  0  0  0  0  0  0
    0.8740    9.4741   29.6690 F   0  0  0  0  0  0  0  0  0  0  0  0
    0.9522   11.6090   29.2736 F   0  0  0  0  0  0  0  0  0  0  0  0
    4.8270   10.5325   28.1842 C   0  0  0  0  0  0  0  0  0  0  0  0
    5.7347   10.7325   28.8902 O   0  0  0  0  0  0  0  0  0  0  0  0
    4.6577   10.7979   26.6663 N   0  0  0  0  0  0  0  0  0  0  0  0
    5.6033   11.2754   25.6881 C   0  0  2  0  0  0  0  0  0  0  0  0
    6.4540   10.1195   25.1732 C   0  0  0  0  0  0  0  0  0  0  0  0
    7.6124   10.5623   24.2998 C   0  0  0  0  0  0  0  0  0  0  0  0
    7.4499   11.9384   23.8895 N   0  0  0  0  0  0  0  0  0  0  0  0
    7.4774   12.8098   24.9609 C   0  0  0  0  0  0  0  0  0  0  0  0
    8.3162   13.6998   25.0208 O   0  0  0  0  0  0  0  0  0  0  0  0
    6.4155   12.5229   26.0301 C   0  0  0  0  0  0  0  0  0  0  0  0
  2  1  1  1
  2  3  1  0
  3  4  1  0
  4  5  1  0
  4  6  1  0
  4  7  1  0
  2  8  1  0
  8  9  2  0
  8 10  1  0
 11 10  1  1
 11 12  1  0
 12 13  1  0
 13 14  1  0
 14 15  1  0
 15 16  2  0
 15 17  1  0
 17 11  1  0
M  END
>  <ref_pdb>  (1164) 
A1445a

>  <subsites>  (1164) 
1 - Active Site

>  <HIPPO Compound ID>  (1164) 
5452

>  <energy_score>  (1164) 
-0.884999

>  <fragmenstein_mode>  (1164) 
expansion

>  <scratch_subdir>  (1164) 
/opt/xchem-fragalysis-2/maxwin/BulkDock/SCRATCH/512224/C31102-P120

>  <smiles>  (1164) 
C[C@@H](SC(F)(F)F)C(=O)N[C@@H]1CCNC(=O)C1

>  <alias>  (1164) 
C31102-P120

>  <ref_mols>  (1164) 
A1445a,A4563a

>  <inspiration_score>  (1164) 
None

>  <tags>  (1164) 
BulkDock Fragalysis export,fragmenstein_placed,openbind_a71ev2a_c1_knitwork_impure,openbind_a71ev2a_c1_scaffolds

>  <fragmenstein_outcome>  (1164) 
acceptable

>  <fragmenstein_error>  (1164) 


>  <distance_score>  (1164) 
0.999214

>  <inchikey>  (1164) 
ARNGBMWSRMXYCL-UHFFFAOYSA-N

>  <name>  (1164) 
C31102-P120

>  <HIPPO Pose ID>  (1164) 
484625

>  <Energy>  (1164) 
1.301546

>  <exports>  (1164) 
['/opt/xchem-fragalysis-2/maxwin/BulkDock/OUTPUTS/openbind_a71ev2a_c1_knitwork_impure_165VXJF.sdf', '/opt/xchem-fragalysis-2/maxwin/BulkDock/OUTPUTS/openbind_a71ev2a_c1_knitwork_impure_1B07QS4.sdf', '/opt/xchem-fragalysis-2/maxwin/BulkDock/OUTPUTS/openbind_a71ev2a_c1_knitwork_impure_1B07X5R.sdf', '/opt/xchem-fragalysis-2/maxwin/openbind-hippo/a71ev2a/openbind_a71ev2a_c1_scaffold_products.sdf', '/opt/xchem-fragalysis-2/maxwin/openbind-hippo/a71ev2a/cycle_01/bulkdock/openbind_a71ev2a_c1_scaffold_products.sdf', '/opt/xchem-fragalysis-2/maxwin/openbind-hippo/a71ev2a/cycle_01/bulkdock/openbind_a71ev2a_c1_scaffolds.sdf']

>  <fragmenstein_runtime>  (1164) 
2.564582

$$$$
C7479-P612
     RDKit          3D

 23 24  0  0  0  0  0  0  0  0999 V2000
    3.4487   12.3863   18.2067 C   0  0  0  0  0  0  0  0  0  0  0  0
    3.3082   12.6649   19.7034 C   0  0  0  0  0  0  0  0  0  0  0  0
    2.2181   11.7791   20.3066 C   0  0  0  0  0  0  0  0  0  0  0  0
    3.0256   14.0954   19.9693 C   0  0  0  0  0  0  0  0  0  0  0  0
    2.1273   14.6936   19.1318 O   0  0  0  0  0  0  0  0  0  0  0  0
    2.0765   15.9743   19.5585 C   0  0  0  0  0  0  0  0  0  0  0  0
    2.8355   16.2528   20.5961 N   0  0  0  0  0  0  0  0  0  0  0  0
    3.4269   15.0361   20.9038 C   0  0  0  0  0  0  0  0  0  0  0  0
    4.3196   14.8885   22.0968 C   0  0  0  0  0  0  0  0  0  0  0  0
    5.5983   15.5121   21.7925 N   0  0  0  0  0  0  0  0  0  0  0  0
    6.9985   14.7147   22.2182 S   0  0  0  0  0  0  0  0  0  0  0  0
    6.7400   13.3437   21.7996 O   0  0  0  0  0  0  0  0  0  0  0  0
    7.9850   15.4119   21.4186 O   0  0  0  0  0  0  0  0  0  0  0  0
    6.9619   14.9659   23.7307 N   0  0  0  0  0  0  0  0  0  0  0  0
    8.3065   14.6369   24.4036 S   0  0  2  0  0  0  0  0  0  0  0  0
    8.1476   15.2112   26.0836 C   0  0  0  0  0  0  0  0  0  0  0  0
    9.5867   15.1452   23.9562 O   0  0  0  0  0  0  0  0  0  0  0  0
    8.5174   12.8573   24.6504 C   0  0  0  0  0  0  0  0  0  0  0  0
    9.2924   12.2146   23.5064 C   0  0  0  0  0  0  0  0  0  0  0  0
    9.3721   10.6923   23.5351 C   0  0  0  0  0  0  0  0  0  0  0  0
    8.2209    9.9394   24.1739 C   0  0  0  0  0  0  0  0  0  0  0  0
    7.4133   10.6756   25.2250 C   0  0  0  0  0  0  0  0  0  0  0  0
    7.2020   12.1468   24.9298 C   0  0  0  0  0  0  0  0  0  0  0  0
  1  2  1  0
  2  3  1  0
  2  4  1  0
  4  5  1  0
  5  6  1  0
  6  7  2  0
  7  8  1  0
  8  9  1  0
  9 10  1  0
 10 11  1  0
 11 12  2  0
 11 13  2  0
 11 14  1  0
 14 15  2  0
 15 16  1  1
 15 17  2  0
 15 18  1  0
 18 19  1  0
 19 20  1  0
 20 21  1  0
 21 22  1  0
 22 23  1  0
  8  4  2  0
 23 18  1  0
M  END
>  <ref_pdb>  (1165) 
A5394a

>  <subsites>  (1165) 
1 - Active Site

>  <HIPPO Compound ID>  (1165) 
12012

>  <energy_score>  (1165) 
-238.415014

>  <fragmenstein_mode>  (1165) 
expansion

>  <scratch_subdir>  (1165) 
/opt/xchem-fragalysis-2/maxwin/BulkDock/SCRATCH/512224/C7479-P612

>  <smiles>  (1165) 
CC(C)c1ocnc1CNS(=O)(=O)N=[S@](C)(=O)C1CCCCC1

>  <alias>  (1165) 
C7479-P612

>  <ref_mols>  (1165) 
A3623a,A5394a

>  <inspiration_score>  (1165) 
None

>  <tags>  (1165) 
BulkDock Fragalysis export,fragmenstein_placed,openbind_a71ev2a_c1_knitwork_impure,openbind_a71ev2a_c1_scaffolds

>  <fragmenstein_outcome>  (1165) 
acceptable

>  <fragmenstein_error>  (1165) 


>  <distance_score>  (1165) 
0.85956

>  <inchikey>  (1165) 
RTQXTGWAIMKSIN-UHFFFAOYSA-N

>  <name>  (1165) 
C7479-P612

>  <HIPPO Pose ID>  (1165) 
485067

>  <Energy>  (1165) 
-241.969281

>  <exports>  (1165) 
['/opt/xchem-fragalysis-2/maxwin/BulkDock/OUTPUTS/openbind_a71ev2a_c1_knitwork_impure_165VXJF.sdf', '/opt/xchem-fragalysis-2/maxwin/BulkDock/OUTPUTS/openbind_a71ev2a_c1_knitwork_impure_1B07QS4.sdf', '/opt/xchem-fragalysis-2/maxwin/BulkDock/OUTPUTS/openbind_a71ev2a_c1_knitwork_impure_1B07X5R.sdf', '/opt/xchem-fragalysis-2/maxwin/openbind-hippo/a71ev2a/openbind_a71ev2a_c1_scaffold_products.sdf', '/opt/xchem-fragalysis-2/maxwin/openbind-hippo/a71ev2a/cycle_01/bulkdock/openbind_a71ev2a_c1_scaffold_products.sdf', '/opt/xchem-fragalysis-2/maxwin/openbind-hippo/a71ev2a/cycle_01/bulkdock/openbind_a71ev2a_c1_scaffolds.sdf']

>  <fragmenstein_runtime>  (1165) 
4.539525

$$$$
C11193-P363
     RDKit          3D

 11 11  0  0  0  0  0  0  0  0999 V2000
   10.3800   13.1908   23.3742 C   0  0  0  0  0  0  0  0  0  0  0  0
   10.0531   12.2603   24.4031 O   0  0  0  0  0  0  0  0  0  0  0  0
    9.0301   11.3532   24.0055 C   0  0  1  0  0  0  0  0  0  0  0  0
    9.6354   10.1334   23.3347 C   0  0  0  0  0  0  0  0  0  0  0  0
    8.1169   10.6764   25.4119 S   0  0  0  0  0  0  0  0  0  0  0  0
    7.1584   12.0262   26.0294 C   0  0  0  0  0  0  0  0  0  0  0  0
    5.9468   11.7118   26.6463 C   0  0  0  0  0  0  0  0  0  0  0  0
    5.2221   12.7280   27.2373 C   0  0  0  0  0  0  0  0  0  0  0  0
    5.6262   14.0121   27.2600 N   0  0  0  0  0  0  0  0  0  0  0  0
    6.7975   14.2924   26.6536 C   0  0  0  0  0  0  0  0  0  0  0  0
    7.5920   13.3445   26.0368 C   0  0  0  0  0  0  0  0  0  0  0  0
  1  2  1  0
  2  3  1  0
  3  4  1  1
  3  5  1  0
  5  6  1  0
  6  7  2  0
  7  8  1  0
  8  9  2  0
  9 10  1  0
 10 11  2  0
 11  6  1  0
M  END
>  <ref_pdb>  (1166) 
A4445a

>  <subsites>  (1166) 
1 - Active Site

>  <HIPPO Compound ID>  (1166) 
15060

>  <energy_score>  (1166) 
-18.169407

>  <fragmenstein_mode>  (1166) 
expansion

>  <scratch_subdir>  (1166) 
/opt/xchem-fragalysis-2/maxwin/BulkDock/SCRATCH/512224/C11193-P363

>  <smiles>  (1166) 
CO[C@@H](C)Sc1ccncc1

>  <alias>  (1166) 
C11193-P363

>  <ref_mols>  (1166) 
A4445a,A3564a

>  <inspiration_score>  (1166) 
None

>  <tags>  (1166) 
BulkDock Fragalysis export,fragmenstein_placed,openbind_a71ev2a_c1_knitwork_impure,openbind_a71ev2a_c1_scaffolds

>  <fragmenstein_outcome>  (1166) 
acceptable

>  <fragmenstein_error>  (1166) 


>  <distance_score>  (1166) 
0.899624

>  <inchikey>  (1166) 
WTLZXJJEXLVAHW-UHFFFAOYSA-N

>  <name>  (1166) 
C11193-P363

>  <HIPPO Pose ID>  (1166) 
485431

>  <Energy>  (1166) 
9.675383

>  <exports>  (1166) 
['/opt/xchem-fragalysis-2/maxwin/BulkDock/OUTPUTS/openbind_a71ev2a_c1_knitwork_impure_165VXJF.sdf', '/opt/xchem-fragalysis-2/maxwin/BulkDock/OUTPUTS/openbind_a71ev2a_c1_knitwork_impure_1B07QS4.sdf', '/opt/xchem-fragalysis-2/maxwin/BulkDock/OUTPUTS/openbind_a71ev2a_c1_knitwork_impure_1B07X5R.sdf', '/opt/xchem-fragalysis-2/maxwin/openbind-hippo/a71ev2a/openbind_a71ev2a_c1_scaffold_products.sdf', '/opt/xchem-fragalysis-2/maxwin/openbind-hippo/a71ev2a/cycle_01/bulkdock/openbind_a71ev2a_c1_scaffold_products.sdf', '/opt/xchem-fragalysis-2/maxwin/openbind-hippo/a71ev2a/cycle_01/bulkdock/openbind_a71ev2a_c1_scaffolds.sdf']

>  <fragmenstein_runtime>  (1166) 
5.88424

$$$$
C11200-P363
     RDKit          3D

 13 13  0  0  0  0  0  0  0  0999 V2000
    9.6890   10.4232   23.7397 C   0  0  0  0  0  0  0  0  0  0  0  0
    9.6836   11.8335   23.2364 C   0  0  0  0  0  0  0  0  0  0  0  0
    9.3428   12.9513   23.8988 C   0  0  0  0  0  0  0  0  0  0  0  0
    9.3799   14.3271   23.2917 C   0  0  0  0  0  0  0  0  0  0  0  0
   10.5911   15.1358   23.7378 C   0  0  0  0  0  0  0  0  0  0  0  0
    9.1199   12.8510   25.3538 C   0  0  0  0  0  0  0  0  0  0  0  0
   10.0617   12.8757   26.1369 O   0  0  0  0  0  0  0  0  0  0  0  0
    7.7431   12.7680   25.8560 C   0  0  0  0  0  0  0  0  0  0  0  0
    7.1291   11.5296   26.0044 C   0  0  0  0  0  0  0  0  0  0  0  0
    5.9021   11.4938   26.6365 C   0  0  0  0  0  0  0  0  0  0  0  0
    5.2758   12.5861   27.1177 N   0  0  0  0  0  0  0  0  0  0  0  0
    5.9005   13.7743   26.9526 C   0  0  0  0  0  0  0  0  0  0  0  0
    7.1319   13.9185   26.3405 C   0  0  0  0  0  0  0  0  0  0  0  0
  1  2  1  0
  2  3  2  3
  3  4  1  0
  4  5  1  0
  3  6  1  0
  6  7  2  0
  6  8  1  0
  8  9  2  0
  9 10  1  0
 10 11  2  0
 11 12  1  0
 12 13  2  0
 13  8  1  0
M  END
>  <ref_pdb>  (1167) 
A4445a

>  <subsites>  (1167) 
1 - Active Site

>  <HIPPO Compound ID>  (1167) 
39108

>  <energy_score>  (1167) 
-30.262651

>  <fragmenstein_mode>  (1167) 
expansion

>  <scratch_subdir>  (1167) 
/opt/xchem-fragalysis-2/maxwin/BulkDock/SCRATCH/512224/C11200-P363

>  <smiles>  (1167) 
CC=C(CC)C(=O)c1ccncc1

>  <alias>  (1167) 
C11200-P363

>  <ref_mols>  (1167) 
A4445a,A3564a

>  <inspiration_score>  (1167) 
None

>  <tags>  (1167) 
BulkDock Fragalysis export,fragmenstein_placed,openbind_a71ev2a_c1_knitwork_impure,openbind_a71ev2a_c1_scaffolds

>  <fragmenstein_outcome>  (1167) 
acceptable

>  <fragmenstein_error>  (1167) 


>  <distance_score>  (1167) 
0.75577

>  <inchikey>  (1167) 
NJZWNPRAQMACTE-UHFFFAOYSA-N

>  <name>  (1167) 
C11200-P363

>  <HIPPO Pose ID>  (1167) 
485434

>  <Energy>  (1167) 
43.888951

>  <exports>  (1167) 
['/opt/xchem-fragalysis-2/maxwin/BulkDock/OUTPUTS/openbind_a71ev2a_c1_knitwork_impure_165VXJF.sdf', '/opt/xchem-fragalysis-2/maxwin/BulkDock/OUTPUTS/openbind_a71ev2a_c1_knitwork_impure_1B07QS4.sdf', '/opt/xchem-fragalysis-2/maxwin/BulkDock/OUTPUTS/openbind_a71ev2a_c1_knitwork_impure_1B07X5R.sdf', '/opt/xchem-fragalysis-2/maxwin/openbind-hippo/a71ev2a/openbind_a71ev2a_c1_scaffold_products.sdf', '/opt/xchem-fragalysis-2/maxwin/openbind-hippo/a71ev2a/cycle_01/bulkdock/openbind_a71ev2a_c1_scaffold_products.sdf', '/opt/xchem-fragalysis-2/maxwin/openbind-hippo/a71ev2a/cycle_01/bulkdock/openbind_a71ev2a_c1_scaffolds.sdf']

>  <fragmenstein_runtime>  (1167) 
67.915069

$$$$
C1785-P457
     RDKit          3D

 11 12  0  0  0  0  0  0  0  0999 V2000
    3.4991    8.6417   27.4640 C   0  0  0  0  0  0  0  0  0  0  0  0
    4.1796    9.4508   26.6827 N   0  0  0  0  0  0  0  0  0  0  0  0
    5.1768   10.0713   27.4135 C   0  0  0  0  0  0  0  0  0  0  0  0
    6.2072   10.8988   26.6978 C   0  0  0  0  0  0  0  0  0  0  0  0
    6.7568   10.2293   25.4339 C   0  0  0  0  0  0  0  0  0  0  0  0
    7.9032   11.0419   24.8281 C   0  0  0  0  0  0  0  0  0  0  0  0
    7.8644   12.4650   25.1881 N   0  0  0  0  0  0  0  0  0  0  0  0
    6.4916   12.9590   25.2298 C   0  0  0  0  0  0  0  0  0  0  0  0
    5.6895   12.3028   26.3572 C   0  0  0  0  0  0  0  0  0  0  0  0
    5.1026    9.8444   28.7780 C   0  0  0  0  0  0  0  0  0  0  0  0
    3.8068    8.7840   29.1394 S   0  0  0  0  0  0  0  0  0  0  0  0
  1  2  2  0
  2  3  1  0
  3  4  1  0
  4  5  1  0
  5  6  1  0
  6  7  1  0
  7  8  1  0
  8  9  1  0
  3 10  2  0
 10 11  1  0
 11  1  1  0
  9  4  1  0
M  END
>  <ref_pdb>  (1168) 
A4751a

>  <subsites>  (1168) 
1 - Active Site

>  <HIPPO Compound ID>  (1168) 
2375

>  <energy_score>  (1168) 
-39.482596

>  <fragmenstein_mode>  (1168) 
expansion

>  <scratch_subdir>  (1168) 
/opt/xchem-fragalysis-2/maxwin/BulkDock/SCRATCH/512224/C1785-P457

>  <smiles>  (1168) 
c1nc(C2CCNCC2)cs1

>  <alias>  (1168) 
C1785-P457

>  <ref_mols>  (1168) 
A4751a,A0556a

>  <inspiration_score>  (1168) 
None

>  <tags>  (1168) 
BulkDock Fragalysis export,fragmenstein_placed,openbind_a71ev2a_c1_knitwork_impure,openbind_a71ev2a_c1_scaffolds

>  <fragmenstein_outcome>  (1168) 
acceptable

>  <fragmenstein_error>  (1168) 


>  <distance_score>  (1168) 
0.942256

>  <inchikey>  (1168) 
GOSRQBSVGZRPLI-UHFFFAOYSA-N

>  <name>  (1168) 
C1785-P457

>  <HIPPO Pose ID>  (1168) 
485470

>  <Energy>  (1168) 
4.549239

>  <exports>  (1168) 
['/opt/xchem-fragalysis-2/maxwin/BulkDock/OUTPUTS/openbind_a71ev2a_c1_knitwork_impure_165VXJF.sdf', '/opt/xchem-fragalysis-2/maxwin/BulkDock/OUTPUTS/openbind_a71ev2a_c1_knitwork_impure_1B07QS4.sdf', '/opt/xchem-fragalysis-2/maxwin/BulkDock/OUTPUTS/openbind_a71ev2a_c1_knitwork_impure_1B07X5R.sdf', '/opt/xchem-fragalysis-2/maxwin/openbind-hippo/a71ev2a/openbind_a71ev2a_c1_scaffold_products.sdf', '/opt/xchem-fragalysis-2/maxwin/openbind-hippo/a71ev2a/cycle_01/bulkdock/openbind_a71ev2a_c1_scaffold_products.sdf', '/opt/xchem-fragalysis-2/maxwin/openbind-hippo/a71ev2a/cycle_01/bulkdock/openbind_a71ev2a_c1_scaffolds.sdf']

>  <fragmenstein_runtime>  (1168) 
2.575811

$$$$
C1796-P457
     RDKit          3D

 11 12  0  0  0  0  0  0  0  0999 V2000
    4.1025    8.8958   28.8318 C   0  0  0  0  0  0  0  0  0  0  0  0
    3.5382    8.7111   27.5978 C   0  0  0  0  0  0  0  0  0  0  0  0
    4.2309    9.4633   26.7017 O   0  0  0  0  0  0  0  0  0  0  0  0
    5.2412   10.0163   27.4393 C   0  0  0  0  0  0  0  0  0  0  0  0
    6.2410   10.8499   26.7113 C   0  0  0  0  0  0  0  0  0  0  0  0
    6.7612   10.1972   25.4297 C   0  0  0  0  0  0  0  0  0  0  0  0
    7.8891   11.0251   24.8095 C   0  0  0  0  0  0  0  0  0  0  0  0
    7.8427   12.4434   25.1825 N   0  0  0  0  0  0  0  0  0  0  0  0
    6.4708   12.9306   25.2677 C   0  0  0  0  0  0  0  0  0  0  0  0
    5.6985   12.2504   26.4022 C   0  0  0  0  0  0  0  0  0  0  0  0
    5.1830    9.7371   28.7298 N   0  0  0  0  0  0  0  0  0  0  0  0
  1  2  2  0
  2  3  1  0
  3  4  1  0
  4  5  1  0
  5  6  1  0
  6  7  1  0
  7  8  1  0
  8  9  1  0
  9 10  1  0
  4 11  2  0
 11  1  1  0
 10  5  1  0
M  END
>  <ref_pdb>  (1169) 
A4751a

>  <subsites>  (1169) 
1 - Active Site

>  <HIPPO Compound ID>  (1169) 
9322

>  <energy_score>  (1169) 
-21.864975

>  <fragmenstein_mode>  (1169) 
expansion

>  <scratch_subdir>  (1169) 
/opt/xchem-fragalysis-2/maxwin/BulkDock/SCRATCH/512224/C1796-P457

>  <smiles>  (1169) 
c1coc(C2CCNCC2)n1

>  <alias>  (1169) 
C1796-P457

>  <ref_mols>  (1169) 
A4751a,A0556a

>  <inspiration_score>  (1169) 
None

>  <tags>  (1169) 
BulkDock Fragalysis export,fragmenstein_placed,openbind_a71ev2a_c1_knitwork_impure,openbind_a71ev2a_c1_scaffolds

>  <fragmenstein_outcome>  (1169) 
acceptable

>  <fragmenstein_error>  (1169) 


>  <distance_score>  (1169) 
0.954211

>  <inchikey>  (1169) 
GDXDBEIGTXDPSA-UHFFFAOYSA-N

>  <name>  (1169) 
C1796-P457

>  <HIPPO Pose ID>  (1169) 
485473

>  <Energy>  (1169) 
1.22341

>  <exports>  (1169) 
['/opt/xchem-fragalysis-2/maxwin/BulkDock/OUTPUTS/openbind_a71ev2a_c1_knitwork_impure_165VXJF.sdf', '/opt/xchem-fragalysis-2/maxwin/BulkDock/OUTPUTS/openbind_a71ev2a_c1_knitwork_impure_1B07QS4.sdf', '/opt/xchem-fragalysis-2/maxwin/BulkDock/OUTPUTS/openbind_a71ev2a_c1_knitwork_impure_1B07X5R.sdf', '/opt/xchem-fragalysis-2/maxwin/openbind-hippo/a71ev2a/openbind_a71ev2a_c1_scaffold_products.sdf', '/opt/xchem-fragalysis-2/maxwin/openbind-hippo/a71ev2a/cycle_01/bulkdock/openbind_a71ev2a_c1_scaffold_products.sdf', '/opt/xchem-fragalysis-2/maxwin/openbind-hippo/a71ev2a/cycle_01/bulkdock/openbind_a71ev2a_c1_scaffolds.sdf']

>  <fragmenstein_runtime>  (1169) 
2.695761

$$$$
C1446-P71
     RDKit          3D

 16 17  0  0  0  0  0  0  0  0999 V2000
    4.9002   12.1496    3.3269 C   0  0  0  0  0  0  0  0  0  0  0  0
    5.4225   13.4914    3.8186 C   0  0  2  0  0  0  0  0  0  0  0  0
    5.5994   14.5775    2.7286 C   0  0  1  0  0  0  0  0  0  0  0  0
    6.0468   14.0456    1.3634 C   0  0  0  0  0  0  0  0  0  0  0  0
    5.6159   14.3520    0.2645 O   0  0  0  0  0  0  0  0  0  0  0  0
    7.0764   13.1798    1.4327 O   0  0  0  0  0  0  0  0  0  0  0  0
    4.3071   15.2839    2.5853 N   0  0  0  0  0  0  0  0  0  0  0  0
    3.1709   14.8314    1.9642 C   0  0  0  0  0  0  0  0  0  0  0  0
    2.1726   15.7275    2.2629 C   0  0  0  0  0  0  0  0  0  0  0  0
    2.7867   16.6855    3.0812 C   0  0  0  0  0  0  0  0  0  0  0  0
    4.0766   16.4181    3.2894 N   0  0  0  0  0  0  0  0  0  0  0  0
    6.7233   15.5300    3.2371 C   0  0  0  0  0  0  0  0  0  0  0  0
    7.8372   14.6757    3.8238 C   0  0  0  0  0  0  0  0  0  0  0  0
    6.9960   13.3656    4.6751 S   0  0  0  0  0  0  0  0  0  0  0  0
    6.8258   13.8055    6.0505 O   0  0  0  0  0  0  0  0  0  0  0  0
    7.6428   12.1110    4.3731 O   0  0  0  0  0  0  0  0  0  0  0  0
  2  1  1  6
  2  3  1  0
  3  4  1  0
  4  5  2  0
  4  6  1  0
  3  7  1  6
  7  8  1  0
  8  9  2  0
  9 10  1  0
 10 11  2  0
  3 12  1  0
 12 13  1  0
 13 14  1  0
 14 15  2  0
 14 16  2  0
 14  2  1  0
 11  7  1  0
M  END
>  <ref_pdb>  (1170) 
A0428a

>  <subsites>  (1170) 
3 - A0541/A/147/1

>  <HIPPO Compound ID>  (1170) 
1446

>  <energy_score>  (1170) 
-55.772795

>  <fragmenstein_mode>  (1170) 
expansion

>  <scratch_subdir>  (1170) 
/opt/xchem-fragalysis-2/maxwin/BulkDock/SCRATCH/511211/C1446-P71

>  <smiles>  (1170) 
C[C@@H]1[C@@](C(=O)O)(n2cccn2)CCS1(=O)=O

>  <alias>  (1170) 
C1446-P71

>  <ref_mols>  (1170) 
A0354a,A0428a

>  <inspiration_score>  (1170) 
None

>  <tags>  (1170) 
BulkDock Fragalysis export,fragmenstein_placed,openbind_a71ev2a_c1_knitwork_impure,openbind_a71ev2a_c1_scaffolds

>  <fragmenstein_outcome>  (1170) 
acceptable

>  <fragmenstein_error>  (1170) 


>  <distance_score>  (1170) 
0.808579

>  <inchikey>  (1170) 
CQUDLYKHYNSNKN-UHFFFAOYSA-N

>  <name>  (1170) 
C1446-P71

>  <HIPPO Pose ID>  (1170) 
485822

>  <Energy>  (1170) 
-45.225364

>  <exports>  (1170) 
['/opt/xchem-fragalysis-2/maxwin/BulkDock/OUTPUTS/openbind_a71ev2a_c1_knitwork_impure_165VXJF.sdf', '/opt/xchem-fragalysis-2/maxwin/BulkDock/OUTPUTS/openbind_a71ev2a_c1_knitwork_impure_1B07QS4.sdf', '/opt/xchem-fragalysis-2/maxwin/BulkDock/OUTPUTS/openbind_a71ev2a_c1_knitwork_impure_1B07X5R.sdf', '/opt/xchem-fragalysis-2/maxwin/openbind-hippo/a71ev2a/openbind_a71ev2a_c1_scaffold_products.sdf', '/opt/xchem-fragalysis-2/maxwin/openbind-hippo/a71ev2a/cycle_01/bulkdock/openbind_a71ev2a_c1_scaffold_products.sdf', '/opt/xchem-fragalysis-2/maxwin/openbind-hippo/a71ev2a/cycle_01/bulkdock/openbind_a71ev2a_c1_scaffolds.sdf']

>  <fragmenstein_runtime>  (1170) 
1.380603

$$$$
C8173-P244
     RDKit          3D

 17 17  0  0  0  0  0  0  0  0999 V2000
    7.7359   13.3038   22.3596 O   0  0  0  0  0  0  0  0  0  0  0  0
    8.4991   13.9115   23.0048 C   0  0  0  0  0  0  0  0  0  0  0  0
    9.4183   15.1157   22.6184 N   0  0  0  0  0  0  0  0  0  0  0  0
    9.6486   15.7460   21.3398 C   0  0  0  0  0  0  0  0  0  0  0  0
   11.0513   15.4103   20.8549 C   0  0  0  0  0  0  0  0  0  0  0  0
   11.2525   15.7601   19.4049 C   0  0  0  0  0  0  0  0  0  0  0  0
   10.6300   14.9071   18.5716 F   0  0  0  0  0  0  0  0  0  0  0  0
   10.7996   16.9990   19.1204 F   0  0  0  0  0  0  0  0  0  0  0  0
   12.5630   15.7229   19.0820 F   0  0  0  0  0  0  0  0  0  0  0  0
    8.8914   13.5963   24.4601 C   0  0  1  0  0  0  0  0  0  0  0  0
    8.7720   14.7093   25.2491 F   0  0  0  0  0  0  0  0  0  0  0  0
    8.2451   12.4305   25.1963 C   0  0  0  0  0  0  0  0  0  0  0  0
    8.3239   11.0896   24.4795 C   0  0  0  0  0  0  0  0  0  0  0  0
    7.7319    9.9754   25.3346 C   0  0  0  0  0  0  0  0  0  0  0  0
    6.3896   10.2484   25.8246 N   0  0  0  0  0  0  0  0  0  0  0  0
    6.2738   11.5384   26.4984 C   0  0  0  0  0  0  0  0  0  0  0  0
    6.8268   12.7134   25.6851 C   0  0  0  0  0  0  0  0  0  0  0  0
  1  2  2  0
  2  3  1  0
  3  4  1  0
  4  5  1  0
  5  6  1  0
  6  7  1  0
  6  8  1  0
  6  9  1  0
  2 10  1  0
 10 11  1  1
 10 12  1  0
 12 13  1  0
 13 14  1  0
 14 15  1  0
 15 16  1  0
 16 17  1  0
 17 12  1  0
M  END
>  <ref_pdb>  (1171) 
A3940a

>  <subsites>  (1171) 
1 - Active Site

>  <HIPPO Compound ID>  (1171) 
6603

>  <energy_score>  (1171) 
-6.369733

>  <fragmenstein_mode>  (1171) 
expansion

>  <scratch_subdir>  (1171) 
/opt/xchem-fragalysis-2/maxwin/BulkDock/SCRATCH/511211/C8173-P244

>  <smiles>  (1171) 
O=C(NCCC(F)(F)F)[C@@H](F)C1CCNCC1

>  <alias>  (1171) 
C8173-P244

>  <ref_mols>  (1171) 
A3940a,A0719a

>  <inspiration_score>  (1171) 
None

>  <tags>  (1171) 
BulkDock Fragalysis export,fragmenstein_placed,openbind_a71ev2a_c1_knitwork_impure,openbind_a71ev2a_c1_scaffolds

>  <fragmenstein_outcome>  (1171) 
acceptable

>  <fragmenstein_error>  (1171) 


>  <distance_score>  (1171) 
0.902301

>  <inchikey>  (1171) 
GCAKZJRFFNZIMB-UHFFFAOYSA-N

>  <name>  (1171) 
C8173-P244

>  <HIPPO Pose ID>  (1171) 
486665

>  <Energy>  (1171) 
24.356539

>  <exports>  (1171) 
['/opt/xchem-fragalysis-2/maxwin/BulkDock/OUTPUTS/openbind_a71ev2a_c1_knitwork_impure_165VXJF.sdf', '/opt/xchem-fragalysis-2/maxwin/BulkDock/OUTPUTS/openbind_a71ev2a_c1_knitwork_impure_1B07QS4.sdf', '/opt/xchem-fragalysis-2/maxwin/BulkDock/OUTPUTS/openbind_a71ev2a_c1_knitwork_impure_1B07X5R.sdf', '/opt/xchem-fragalysis-2/maxwin/openbind-hippo/a71ev2a/openbind_a71ev2a_c1_scaffold_products.sdf', '/opt/xchem-fragalysis-2/maxwin/openbind-hippo/a71ev2a/cycle_01/bulkdock/openbind_a71ev2a_c1_scaffold_products.sdf', '/opt/xchem-fragalysis-2/maxwin/openbind-hippo/a71ev2a/cycle_01/bulkdock/openbind_a71ev2a_c1_scaffolds.sdf']

>  <fragmenstein_runtime>  (1171) 
3.532322

$$$$
C7674-P192
     RDKit          3D

 13 14  0  0  0  0  0  0  0  0999 V2000
    5.7005   15.4641   21.7521 N   0  0  0  0  0  0  0  0  0  0  0  0
    7.1170   14.7272   22.2817 S   0  0  0  0  0  0  0  0  0  0  0  0
    8.1947   15.4836   21.6918 O   0  0  0  0  0  0  0  0  0  0  0  0
    6.9315   13.3191   22.0243 O   0  0  0  0  0  0  0  0  0  0  0  0
    7.0265   15.1052   24.0328 C   0  0  0  0  0  0  0  0  0  0  0  0
    8.3786   15.0076   24.7347 C   0  0  0  0  0  0  0  0  0  0  0  0
    8.5581   13.7239   25.5302 C   0  0  0  0  0  0  0  0  0  0  0  0
    8.3853   12.5507   24.7156 N   0  0  0  0  0  0  0  0  0  0  0  0
    9.5303   12.2176   23.8507 C   0  0  0  0  0  0  0  0  0  0  0  0
    9.3038   10.7407   23.4953 C   0  0  0  0  0  0  0  0  0  0  0  0
    8.5119   10.1629   24.6151 C   0  0  2  0  0  0  0  0  0  0  0  0
    7.0542   10.4244   24.8333 C   0  0  0  0  0  0  0  0  0  0  0  0
    8.0542   11.3245   25.4348 C   0  0  2  0  0  0  0  0  0  0  0  0
  1  2  1  0
  2  3  2  0
  2  4  2  0
  2  5  1  0
  5  6  1  0
  6  7  1  0
  7  8  1  0
  8  9  1  0
  9 10  1  0
 11 10  1  6
 11 12  1  0
 13 12  1  6
 13  8  1  0
 13 11  1  0
M  END
>  <ref_pdb>  (1172) 
A3510a

>  <subsites>  (1172) 
1 - Active Site

>  <HIPPO Compound ID>  (1172) 
7674

>  <energy_score>  (1172) 
-77.502317

>  <fragmenstein_mode>  (1172) 
expansion

>  <scratch_subdir>  (1172) 
/opt/xchem-fragalysis-2/maxwin/BulkDock/SCRATCH/511211/C7674-P192

>  <smiles>  (1172) 
NS(=O)(=O)CCCN1CC[C@@H]2C[C@@H]21

>  <alias>  (1172) 
C7674-P192

>  <ref_mols>  (1172) 
A3510a,A0719a

>  <inspiration_score>  (1172) 
None

>  <tags>  (1172) 
BulkDock Fragalysis export,fragmenstein_placed,openbind_a71ev2a_c1_knitwork_impure,openbind_a71ev2a_c1_scaffolds

>  <fragmenstein_outcome>  (1172) 
acceptable

>  <fragmenstein_error>  (1172) 


>  <distance_score>  (1172) 
0.912004

>  <inchikey>  (1172) 
FVNJSOWLEHGULL-UHFFFAOYSA-N

>  <name>  (1172) 
C7674-P192

>  <HIPPO Pose ID>  (1172) 
486801

>  <Energy>  (1172) 
-69.0974

>  <exports>  (1172) 
['/opt/xchem-fragalysis-2/maxwin/BulkDock/OUTPUTS/openbind_a71ev2a_c1_knitwork_impure_165VXJF.sdf', '/opt/xchem-fragalysis-2/maxwin/BulkDock/OUTPUTS/openbind_a71ev2a_c1_knitwork_impure_1B07QS4.sdf', '/opt/xchem-fragalysis-2/maxwin/BulkDock/OUTPUTS/openbind_a71ev2a_c1_knitwork_impure_1B07X5R.sdf', '/opt/xchem-fragalysis-2/maxwin/openbind-hippo/a71ev2a/openbind_a71ev2a_c1_scaffold_products.sdf', '/opt/xchem-fragalysis-2/maxwin/openbind-hippo/a71ev2a/cycle_01/bulkdock/openbind_a71ev2a_c1_scaffold_products.sdf', '/opt/xchem-fragalysis-2/maxwin/openbind-hippo/a71ev2a/cycle_01/bulkdock/openbind_a71ev2a_c1_scaffolds.sdf']

>  <fragmenstein_runtime>  (1172) 
3.058565

$$$$
C8138-P270
     RDKit          3D

 15 15  0  0  0  0  0  0  0  0999 V2000
   11.8647   16.1801   21.5091 C   0  0  0  0  0  0  0  0  0  0  0  0
   11.8340   15.0362   22.5064 C   0  0  0  0  0  0  0  0  0  0  0  0
   10.5953   14.9583   23.4032 C   0  0  1  0  0  0  0  0  0  0  0  0
   10.6580   16.0348   24.4848 C   0  0  0  0  0  0  0  0  0  0  0  0
    9.2892   15.0301   22.6026 C   0  0  0  0  0  0  0  0  0  0  0  0
    8.1801   14.1272   23.1049 C   0  0  0  0  0  0  0  0  0  0  0  0
    7.2851   13.7514   22.3368 O   0  0  0  0  0  0  0  0  0  0  0  0
    8.1107   13.7652   24.5875 C   0  0  1  0  0  0  0  0  0  0  0  0
    6.9364   14.4037   25.0927 O   0  0  0  0  0  0  0  0  0  0  0  0
    8.1658   12.2489   24.8932 C   0  0  0  0  0  0  0  0  0  0  0  0
    6.8149   11.6887   25.3174 C   0  0  0  0  0  0  0  0  0  0  0  0
    6.8264   10.1833   25.4930 C   0  0  0  0  0  0  0  0  0  0  0  0
    7.3747    9.4724   24.3618 N   0  0  0  0  0  0  0  0  0  0  0  0
    8.7014    9.9009   23.9587 C   0  0  0  0  0  0  0  0  0  0  0  0
    8.8089   11.4093   23.7796 C   0  0  0  0  0  0  0  0  0  0  0  0
  1  2  1  0
  2  3  1  0
  3  4  1  1
  3  5  1  0
  5  6  1  0
  6  7  2  0
  6  8  1  0
  8  9  1  6
  8 10  1  0
 10 11  1  0
 11 12  1  0
 12 13  1  0
 13 14  1  0
 14 15  1  0
 15 10  1  0
M  END
>  <ref_pdb>  (1173) 
A4020a

>  <subsites>  (1173) 
1 - Active Site

>  <HIPPO Compound ID>  (1173) 
872

>  <energy_score>  (1173) 
-23.974904

>  <fragmenstein_mode>  (1173) 
expansion

>  <scratch_subdir>  (1173) 
/opt/xchem-fragalysis-2/maxwin/BulkDock/SCRATCH/511211/C8138-P270

>  <smiles>  (1173) 
CC[C@@H](C)CC(=O)[C@@H](O)C1CCNCC1

>  <alias>  (1173) 
C8138-P270

>  <ref_mols>  (1173) 
A0719a,A4020a

>  <inspiration_score>  (1173) 
None

>  <tags>  (1173) 
BulkDock Fragalysis export,fragmenstein_placed,openbind_a71ev2a_c1_knitwork_impure,openbind_a71ev2a_c1_scaffolds

>  <fragmenstein_outcome>  (1173) 
acceptable

>  <fragmenstein_error>  (1173) 


>  <distance_score>  (1173) 
0.93454

>  <inchikey>  (1173) 
DCPARYBUYLWDFA-UHFFFAOYSA-N

>  <name>  (1173) 
C8138-P270

>  <HIPPO Pose ID>  (1173) 
486944

>  <Energy>  (1173) 
43.634452

>  <exports>  (1173) 
['/opt/xchem-fragalysis-2/maxwin/BulkDock/OUTPUTS/openbind_a71ev2a_c1_knitwork_impure_165VXJF.sdf', '/opt/xchem-fragalysis-2/maxwin/BulkDock/OUTPUTS/openbind_a71ev2a_c1_knitwork_impure_1B07QS4.sdf', '/opt/xchem-fragalysis-2/maxwin/BulkDock/OUTPUTS/openbind_a71ev2a_c1_knitwork_impure_1B07X5R.sdf', '/opt/xchem-fragalysis-2/maxwin/openbind-hippo/a71ev2a/openbind_a71ev2a_c1_scaffold_products.sdf', '/opt/xchem-fragalysis-2/maxwin/openbind-hippo/a71ev2a/cycle_01/bulkdock/openbind_a71ev2a_c1_scaffold_products.sdf', '/opt/xchem-fragalysis-2/maxwin/openbind-hippo/a71ev2a/cycle_01/bulkdock/openbind_a71ev2a_c1_scaffolds.sdf']

>  <fragmenstein_runtime>  (1173) 
3.91611

$$$$
C8152-P270
     RDKit          3D

 14 14  0  0  0  0  0  0  0  0999 V2000
    9.2854    9.0272   23.4524 C   0  0  0  0  0  0  0  0  0  0  0  0
    8.3054    9.9035   24.1997 C   0  0  0  0  0  0  0  0  0  0  0  0
    8.6368   11.2848   24.0092 O   0  0  0  0  0  0  0  0  0  0  0  0
    7.8591   12.1413   24.7377 C   0  0  0  0  0  0  0  0  0  0  0  0
    6.9756   11.7690   25.5023 O   0  0  0  0  0  0  0  0  0  0  0  0
    8.3076   13.6000   24.5557 C   0  0  2  0  0  0  0  0  0  0  0  0
    7.2867   14.5470   24.8980 O   0  0  0  0  0  0  0  0  0  0  0  0
    8.7795   13.9204   23.1217 C   0  0  0  0  0  0  0  0  0  0  0  0
    9.1489   15.3548   23.0260 N   0  0  0  0  0  0  0  0  0  0  0  0
   10.4766   15.6383   23.6011 C   0  0  0  0  0  0  0  0  0  0  0  0
   11.6544   15.1496   22.7584 C   0  0  0  0  0  0  0  0  0  0  0  0
   11.5702   15.6915   21.3386 C   0  0  0  0  0  0  0  0  0  0  0  0
   10.2064   15.3904   20.7324 C   0  0  0  0  0  0  0  0  0  0  0  0
    9.0754   15.8643   21.6431 C   0  0  0  0  0  0  0  0  0  0  0  0
  1  2  1  0
  2  3  1  0
  3  4  1  0
  4  5  2  0
  4  6  1  0
  6  7  1  6
  6  8  1  0
  8  9  1  0
  9 10  1  0
 10 11  1  0
 11 12  1  0
 12 13  1  0
 13 14  1  0
 14  9  1  0
M  END
>  <ref_pdb>  (1174) 
A4020a

>  <subsites>  (1174) 
1 - Active Site

>  <HIPPO Compound ID>  (1174) 
8152

>  <energy_score>  (1174) 
-56.398366

>  <fragmenstein_mode>  (1174) 
expansion

>  <scratch_subdir>  (1174) 
/opt/xchem-fragalysis-2/maxwin/BulkDock/SCRATCH/511211/C8152-P270

>  <smiles>  (1174) 
CCOC(=O)[C@H](O)CN1CCCCC1

>  <alias>  (1174) 
C8152-P270

>  <ref_mols>  (1174) 
A0719a,A4020a

>  <inspiration_score>  (1174) 
None

>  <tags>  (1174) 
BulkDock Fragalysis export,fragmenstein_placed,openbind_a71ev2a_c1_knitwork_impure,openbind_a71ev2a_c1_scaffolds

>  <fragmenstein_outcome>  (1174) 
acceptable

>  <fragmenstein_error>  (1174) 


>  <distance_score>  (1174) 
0.769405

>  <inchikey>  (1174) 
CQGFXNLTTLLTME-UHFFFAOYSA-N

>  <name>  (1174) 
C8152-P270

>  <HIPPO Pose ID>  (1174) 
486954

>  <Energy>  (1174) 
51.010377

>  <exports>  (1174) 
['/opt/xchem-fragalysis-2/maxwin/BulkDock/OUTPUTS/openbind_a71ev2a_c1_knitwork_impure_165VXJF.sdf', '/opt/xchem-fragalysis-2/maxwin/BulkDock/OUTPUTS/openbind_a71ev2a_c1_knitwork_impure_1B07QS4.sdf', '/opt/xchem-fragalysis-2/maxwin/BulkDock/OUTPUTS/openbind_a71ev2a_c1_knitwork_impure_1B07X5R.sdf', '/opt/xchem-fragalysis-2/maxwin/openbind-hippo/a71ev2a/openbind_a71ev2a_c1_scaffold_products.sdf', '/opt/xchem-fragalysis-2/maxwin/openbind-hippo/a71ev2a/cycle_01/bulkdock/openbind_a71ev2a_c1_scaffold_products.sdf', '/opt/xchem-fragalysis-2/maxwin/openbind-hippo/a71ev2a/cycle_01/bulkdock/openbind_a71ev2a_c1_scaffolds.sdf']

>  <fragmenstein_runtime>  (1174) 
2.365867

$$$$
C8160-P270
     RDKit          3D

 14 14  0  0  0  0  0  0  0  0999 V2000
   10.8628   15.5249   19.3567 C   0  0  0  0  0  0  0  0  0  0  0  0
   10.9740   15.1700   20.8386 C   0  0  0  0  0  0  0  0  0  0  0  0
   11.8998   16.1633   21.5435 C   0  0  0  0  0  0  0  0  0  0  0  0
    9.5772   15.1069   21.4781 C   0  0  0  0  0  0  0  0  0  0  0  0
    9.7235   14.8742   22.9275 N   0  0  0  0  0  0  0  0  0  0  0  0
    8.3851   14.4279   23.7892 S   0  0  0  0  0  0  0  0  0  0  0  0
    8.7037   14.6951   25.1726 O   0  0  0  0  0  0  0  0  0  0  0  0
    7.2046   14.9463   23.1496 O   0  0  0  0  0  0  0  0  0  0  0  0
    8.3185   12.7523   23.6425 N   0  0  0  0  0  0  0  0  0  0  0  0
    7.2016   12.2258   24.4836 C   0  0  0  0  0  0  0  0  0  0  0  0
    7.4831   10.8958   25.1489 C   0  0  0  0  0  0  0  0  0  0  0  0
    8.2076    9.9246   24.2517 C   0  0  0  0  0  0  0  0  0  0  0  0
    9.3997   10.5480   23.5561 C   0  0  0  0  0  0  0  0  0  0  0  0
    9.5922   12.0418   23.8102 C   0  0  0  0  0  0  0  0  0  0  0  0
  1  2  1  0
  2  3  1  0
  2  4  1  0
  4  5  1  0
  5  6  1  0
  6  7  2  0
  6  8  2  0
  6  9  1  0
  9 10  1  0
 10 11  1  0
 11 12  1  0
 12 13  1  0
 13 14  1  0
 14  9  1  0
M  END
>  <ref_pdb>  (1175) 
A4020a

>  <subsites>  (1175) 
1 - Active Site

>  <HIPPO Compound ID>  (1175) 
83786

>  <energy_score>  (1175) 
-43.855213

>  <fragmenstein_mode>  (1175) 
expansion

>  <scratch_subdir>  (1175) 
/opt/xchem-fragalysis-2/maxwin/BulkDock/SCRATCH/511211/C8160-P270

>  <smiles>  (1175) 
CC(C)CNS(=O)(=O)N1CCCCC1

>  <alias>  (1175) 
C8160-P270

>  <ref_mols>  (1175) 
A0719a,A4020a

>  <inspiration_score>  (1175) 
None

>  <tags>  (1175) 
BulkDock Fragalysis export,fragmenstein_placed,openbind_a71ev2a_c1_knitwork_impure,openbind_a71ev2a_c1_scaffolds

>  <fragmenstein_outcome>  (1175) 
acceptable

>  <fragmenstein_error>  (1175) 


>  <distance_score>  (1175) 
0.902419

>  <inchikey>  (1175) 
YVEDCTAHRCLMTN-UHFFFAOYSA-N

>  <name>  (1175) 
C8160-P270

>  <HIPPO Pose ID>  (1175) 
486960

>  <Energy>  (1175) 
-172.526219

>  <exports>  (1175) 
['/opt/xchem-fragalysis-2/maxwin/BulkDock/OUTPUTS/openbind_a71ev2a_c1_knitwork_impure_165VXJF.sdf', '/opt/xchem-fragalysis-2/maxwin/BulkDock/OUTPUTS/openbind_a71ev2a_c1_knitwork_impure_1B07QS4.sdf', '/opt/xchem-fragalysis-2/maxwin/BulkDock/OUTPUTS/openbind_a71ev2a_c1_knitwork_impure_1B07X5R.sdf', '/opt/xchem-fragalysis-2/maxwin/openbind-hippo/a71ev2a/openbind_a71ev2a_c1_scaffold_products.sdf', '/opt/xchem-fragalysis-2/maxwin/openbind-hippo/a71ev2a/cycle_01/bulkdock/openbind_a71ev2a_c1_scaffold_products.sdf', '/opt/xchem-fragalysis-2/maxwin/openbind-hippo/a71ev2a/cycle_01/bulkdock/openbind_a71ev2a_c1_scaffolds.sdf']

>  <fragmenstein_runtime>  (1175) 
49.479357

$$$$
C8163-P270
     RDKit          3D

 15 15  0  0  0  0  0  0  0  0999 V2000
   11.0563   15.5119   19.8182 C   0  0  0  0  0  0  0  0  0  0  0  0
   11.3295   15.3344   20.9727 C   0  0  0  0  0  0  0  0  0  0  0  0
   11.5669   15.0598   22.3908 C   0  0  0  0  0  0  0  0  0  0  0  0
   10.7712   16.0035   23.2738 C   0  0  0  0  0  0  0  0  0  0  0  0
    9.3193   16.0463   23.0100 N   0  0  0  0  0  0  0  0  0  0  0  0
    8.3474   14.6905   23.1245 S   0  0  0  0  0  0  0  0  0  0  0  0
    8.7198   13.7603   22.0931 O   0  0  0  0  0  0  0  0  0  0  0  0
    7.0011   15.2009   23.1833 O   0  0  0  0  0  0  0  0  0  0  0  0
    8.8219   14.0251   24.6968 C   0  0  0  0  0  0  0  0  0  0  0  0
    8.2362   12.6733   25.0505 C   0  0  1  0  0  0  0  0  0  0  0  0
    6.7342   12.6865   25.3005 C   0  0  0  0  0  0  0  0  0  0  0  0
    6.3141   11.3583   25.9168 C   0  0  0  0  0  0  0  0  0  0  0  0
    6.9150   10.1460   25.2090 C   0  0  0  0  0  0  0  0  0  0  0  0
    8.3036   10.2710   24.8015 N   0  0  0  0  0  0  0  0  0  0  0  0
    8.5988   11.5242   24.1131 C   0  0  0  0  0  0  0  0  0  0  0  0
  1  2  3  0
  2  3  1  0
  3  4  1  0
  4  5  1  0
  5  6  1  0
  6  7  2  0
  6  8  2  0
  6  9  1  0
 10  9  1  6
 10 11  1  0
 11 12  1  0
 12 13  1  0
 13 14  1  0
 14 15  1  0
 15 10  1  0
M  END
>  <ref_pdb>  (1176) 
A4020a

>  <subsites>  (1176) 
1 - Active Site

>  <HIPPO Compound ID>  (1176) 
21087

>  <energy_score>  (1176) 
-55.448376

>  <fragmenstein_mode>  (1176) 
expansion

>  <scratch_subdir>  (1176) 
/opt/xchem-fragalysis-2/maxwin/BulkDock/SCRATCH/511211/C8163-P270

>  <smiles>  (1176) 
C#CCCNS(=O)(=O)C[C@H]1CCCNC1

>  <alias>  (1176) 
C8163-P270

>  <ref_mols>  (1176) 
A0719a,A4020a

>  <inspiration_score>  (1176) 
None

>  <tags>  (1176) 
BulkDock Fragalysis export,fragmenstein_placed,openbind_a71ev2a_c1_knitwork_impure,openbind_a71ev2a_c1_scaffolds

>  <fragmenstein_outcome>  (1176) 
acceptable

>  <fragmenstein_error>  (1176) 


>  <distance_score>  (1176) 
0.958102

>  <inchikey>  (1176) 
NLTCJEMUNHLQBH-UHFFFAOYSA-N

>  <name>  (1176) 
C8163-P270

>  <HIPPO Pose ID>  (1176) 
486962

>  <Energy>  (1176) 
-56.38543

>  <exports>  (1176) 
['/opt/xchem-fragalysis-2/maxwin/BulkDock/OUTPUTS/openbind_a71ev2a_c1_knitwork_impure_165VXJF.sdf', '/opt/xchem-fragalysis-2/maxwin/BulkDock/OUTPUTS/openbind_a71ev2a_c1_knitwork_impure_1B07QS4.sdf', '/opt/xchem-fragalysis-2/maxwin/BulkDock/OUTPUTS/openbind_a71ev2a_c1_knitwork_impure_1B07X5R.sdf', '/opt/xchem-fragalysis-2/maxwin/openbind-hippo/a71ev2a/openbind_a71ev2a_c1_scaffold_products.sdf', '/opt/xchem-fragalysis-2/maxwin/openbind-hippo/a71ev2a/cycle_01/bulkdock/openbind_a71ev2a_c1_scaffold_products.sdf', '/opt/xchem-fragalysis-2/maxwin/openbind-hippo/a71ev2a/cycle_01/bulkdock/openbind_a71ev2a_c1_scaffolds.sdf']

>  <fragmenstein_runtime>  (1176) 
10.90431

$$$$
C8169-P270
     RDKit          3D

 14 14  0  0  0  0  0  0  0  0999 V2000
    8.2415   14.7461   24.9084 O   0  0  0  0  0  0  0  0  0  0  0  0
    8.0999   14.2001   23.5802 S   0  0  0  0  0  0  0  0  0  0  0  0
    6.9766   14.4817   22.7249 O   0  0  0  0  0  0  0  0  0  0  0  0
    9.4622   14.5639   22.7240 N   0  0  0  0  0  0  0  0  0  0  0  0
   10.5145   15.3289   23.3963 C   0  0  0  0  0  0  0  0  0  0  0  0
   11.8177   15.1724   22.6296 C   0  0  0  0  0  0  0  0  0  0  0  0
   11.9085   16.0493   21.3913 C   0  0  0  0  0  0  0  0  0  0  0  0
   10.7194   15.6112   20.1444 Cl  0  0  0  0  0  0  0  0  0  0  0  0
    8.1802   12.5208   23.7080 N   0  0  0  0  0  0  0  0  0  0  0  0
    9.5076   11.9225   23.8580 C   0  0  0  0  0  0  0  0  0  0  0  0
    9.4180   10.4225   23.5963 C   0  0  0  0  0  0  0  0  0  0  0  0
    8.2032    9.7303   24.1738 C   0  0  0  0  0  0  0  0  0  0  0  0
    7.4040   10.5830   25.1290 C   0  0  0  0  0  0  0  0  0  0  0  0
    7.2034   12.0310   24.7204 C   0  0  0  0  0  0  0  0  0  0  0  0
  1  2  2  0
  2  3  2  0
  2  4  1  0
  4  5  1  0
  5  6  1  0
  6  7  1  0
  7  8  1  0
  2  9  1  0
  9 10  1  0
 10 11  1  0
 11 12  1  0
 12 13  1  0
 13 14  1  0
 14  9  1  0
M  END
>  <ref_pdb>  (1177) 
A4020a

>  <subsites>  (1177) 
1 - Active Site

>  <HIPPO Compound ID>  (1177) 
11213

>  <energy_score>  (1177) 
-273.175268

>  <fragmenstein_mode>  (1177) 
expansion

>  <scratch_subdir>  (1177) 
/opt/xchem-fragalysis-2/maxwin/BulkDock/SCRATCH/511211/C8169-P270

>  <smiles>  (1177) 
O=S(=O)(NCCCCl)N1CCCCC1

>  <alias>  (1177) 
C8169-P270

>  <ref_mols>  (1177) 
A0719a,A4020a

>  <inspiration_score>  (1177) 
None

>  <tags>  (1177) 
BulkDock Fragalysis export,fragmenstein_placed,openbind_a71ev2a_c1_knitwork_impure,openbind_a71ev2a_c1_scaffolds

>  <fragmenstein_outcome>  (1177) 
acceptable

>  <fragmenstein_error>  (1177) 


>  <distance_score>  (1177) 
0.837633

>  <inchikey>  (1177) 
ABFQQZLULDEORM-UHFFFAOYSA-N

>  <name>  (1177) 
C8169-P270

>  <HIPPO Pose ID>  (1177) 
486966

>  <Energy>  (1177) 
-171.384956

>  <exports>  (1177) 
['/opt/xchem-fragalysis-2/maxwin/BulkDock/OUTPUTS/openbind_a71ev2a_c1_knitwork_impure_165VXJF.sdf', '/opt/xchem-fragalysis-2/maxwin/BulkDock/OUTPUTS/openbind_a71ev2a_c1_knitwork_impure_1B07QS4.sdf', '/opt/xchem-fragalysis-2/maxwin/BulkDock/OUTPUTS/openbind_a71ev2a_c1_knitwork_impure_1B07X5R.sdf', '/opt/xchem-fragalysis-2/maxwin/openbind-hippo/a71ev2a/openbind_a71ev2a_c1_scaffold_products.sdf', '/opt/xchem-fragalysis-2/maxwin/openbind-hippo/a71ev2a/cycle_01/bulkdock/openbind_a71ev2a_c1_scaffold_products.sdf', '/opt/xchem-fragalysis-2/maxwin/openbind-hippo/a71ev2a/cycle_01/bulkdock/openbind_a71ev2a_c1_scaffolds.sdf']

>  <fragmenstein_runtime>  (1177) 
24.343914

$$$$
C8176-P270
     RDKit          3D

 15 15  0  0  0  0  0  0  0  0999 V2000
    8.3196   14.9165   25.6757 C   0  0  0  0  0  0  0  0  0  0  0  0
    8.0174   14.0178   24.4759 C   0  0  1  0  0  0  0  0  0  0  0  0
    6.5768   14.0427   24.3904 O   0  0  0  0  0  0  0  0  0  0  0  0
    8.4817   14.5397   23.0988 C   0  0  0  0  0  0  0  0  0  0  0  0
    7.8290   14.1822   22.1015 O   0  0  0  0  0  0  0  0  0  0  0  0
    9.7171   15.4133   22.9819 C   0  0  0  0  0  0  0  0  0  0  0  0
    9.7671   16.3874   23.9259 F   0  0  0  0  0  0  0  0  0  0  0  0
    9.7738   16.0451   21.7784 F   0  0  0  0  0  0  0  0  0  0  0  0
   11.3128   14.3224   23.1994 Br  0  0  0  0  0  0  0  0  0  0  0  0
    8.5147   12.5576   24.7425 C   0  0  1  0  0  0  0  0  0  0  0  0
    7.5733   11.7861   25.6818 C   0  0  0  0  0  0  0  0  0  0  0  0
    6.9021   10.5910   25.0525 C   0  0  0  0  0  0  0  0  0  0  0  0
    7.9153    9.6495   24.4237 C   0  0  0  0  0  0  0  0  0  0  0  0
    8.9354   10.3145   23.6414 N   0  0  0  0  0  0  0  0  0  0  0  0
    8.7427   11.7349   23.4666 C   0  0  0  0  0  0  0  0  0  0  0  0
  2  1  1  1
  2  3  1  0
  2  4  1  0
  4  5  2  0
  4  6  1  0
  6  7  1  0
  6  8  1  0
  6  9  1  0
  2 10  1  0
 10 11  1  1
 11 12  1  0
 12 13  1  0
 13 14  1  0
 14 15  1  0
 15 10  1  0
M  END
>  <ref_pdb>  (1178) 
A4020a

>  <subsites>  (1178) 
1 - Active Site

>  <HIPPO Compound ID>  (1178) 
936

>  <energy_score>  (1178) 
-24.10513

>  <fragmenstein_mode>  (1178) 
expansion

>  <scratch_subdir>  (1178) 
/opt/xchem-fragalysis-2/maxwin/BulkDock/SCRATCH/511211/C8176-P270

>  <smiles>  (1178) 
C[C@@](O)(C(=O)C(F)(F)Br)[C@H]1CCCNC1

>  <alias>  (1178) 
C8176-P270

>  <ref_mols>  (1178) 
A0719a,A4020a

>  <inspiration_score>  (1178) 
None

>  <tags>  (1178) 
BulkDock Fragalysis export,fragmenstein_placed,openbind_a71ev2a_c1_knitwork_impure,openbind_a71ev2a_c1_scaffolds

>  <fragmenstein_outcome>  (1178) 
acceptable

>  <fragmenstein_error>  (1178) 


>  <distance_score>  (1178) 
0.965963

>  <inchikey>  (1178) 
ADJXGRRNYYGIST-UHFFFAOYSA-N

>  <name>  (1178) 
C8176-P270

>  <HIPPO Pose ID>  (1178) 
486972

>  <Energy>  (1178) 
83.236527

>  <exports>  (1178) 
['/opt/xchem-fragalysis-2/maxwin/BulkDock/OUTPUTS/openbind_a71ev2a_c1_knitwork_impure_165VXJF.sdf', '/opt/xchem-fragalysis-2/maxwin/BulkDock/OUTPUTS/openbind_a71ev2a_c1_knitwork_impure_1B07QS4.sdf', '/opt/xchem-fragalysis-2/maxwin/BulkDock/OUTPUTS/openbind_a71ev2a_c1_knitwork_impure_1B07X5R.sdf', '/opt/xchem-fragalysis-2/maxwin/openbind-hippo/a71ev2a/openbind_a71ev2a_c1_scaffold_products.sdf', '/opt/xchem-fragalysis-2/maxwin/openbind-hippo/a71ev2a/cycle_01/bulkdock/openbind_a71ev2a_c1_scaffold_products.sdf', '/opt/xchem-fragalysis-2/maxwin/openbind-hippo/a71ev2a/cycle_01/bulkdock/openbind_a71ev2a_c1_scaffolds.sdf']

>  <fragmenstein_runtime>  (1178) 
2.847211

$$$$
C9352-P171
     RDKit          3D

 13 13  0  0  0  0  0  0  0  0999 V2000
   12.0721   15.5020   21.4353 C   0  0  0  0  0  0  0  0  0  0  0  0
   11.2147   15.0781   22.5370 C   0  0  0  0  0  0  0  0  0  0  0  0
   10.4410   14.7352   23.3880 C   0  0  0  0  0  0  0  0  0  0  0  0
    9.4789   14.3332   24.3916 C   0  0  0  0  0  0  0  0  0  0  0  0
    9.7431   14.5664   25.5675 O   0  0  0  0  0  0  0  0  0  0  0  0
    8.1684   13.6699   23.9003 C   0  0  1  0  0  0  0  0  0  0  0  0
    7.1258   14.7621   23.6509 C   0  0  0  0  0  0  0  0  0  0  0  0
    8.3627   12.9883   22.6510 O   0  0  0  0  0  0  0  0  0  0  0  0
    7.7735   12.6091   24.9818 C   0  0  1  0  0  0  0  0  0  0  0  0
    6.7681   13.0657   26.0439 C   0  0  0  0  0  0  0  0  0  0  0  0
    6.1195   11.7819   26.5575 C   0  0  0  0  0  0  0  0  0  0  0  0
    6.7065   10.6711   25.7063 C   0  0  0  0  0  0  0  0  0  0  0  0
    7.1469   11.3628   24.5085 N   0  0  0  0  0  0  0  0  0  0  0  0
  1  2  1  0
  2  3  3  0
  3  4  1  0
  4  5  2  0
  4  6  1  0
  6  7  1  6
  6  8  1  0
  6  9  1  0
  9 10  1  1
 10 11  1  0
 11 12  1  0
 12 13  1  0
 13  9  1  0
M  END
>  <ref_pdb>  (1179) 
A3581a

>  <subsites>  (1179) 
1 - Active Site

>  <HIPPO Compound ID>  (1179) 
9352

>  <energy_score>  (1179) 
-17.252245

>  <fragmenstein_mode>  (1179) 
expansion

>  <scratch_subdir>  (1179) 
/opt/xchem-fragalysis-2/maxwin/BulkDock/SCRATCH/511211/C9352-P171

>  <smiles>  (1179) 
CC#CC(=O)[C@@](C)(O)[C@H]1CCCN1

>  <alias>  (1179) 
C9352-P171

>  <ref_mols>  (1179) 
A3581a,A0719a

>  <inspiration_score>  (1179) 
None

>  <tags>  (1179) 
BulkDock Fragalysis export,fragmenstein_placed,openbind_a71ev2a_c1_knitwork_impure,openbind_a71ev2a_c1_scaffolds

>  <fragmenstein_outcome>  (1179) 
acceptable

>  <fragmenstein_error>  (1179) 


>  <distance_score>  (1179) 
0.991339

>  <inchikey>  (1179) 
NZCPRRIBNYPZPE-UHFFFAOYSA-N

>  <name>  (1179) 
C9352-P171

>  <HIPPO Pose ID>  (1179) 
486978

>  <Energy>  (1179) 
79.862995

>  <exports>  (1179) 
['/opt/xchem-fragalysis-2/maxwin/BulkDock/OUTPUTS/openbind_a71ev2a_c1_knitwork_impure_165VXJF.sdf', '/opt/xchem-fragalysis-2/maxwin/BulkDock/OUTPUTS/openbind_a71ev2a_c1_knitwork_impure_1B07QS4.sdf', '/opt/xchem-fragalysis-2/maxwin/BulkDock/OUTPUTS/openbind_a71ev2a_c1_knitwork_impure_1B07X5R.sdf', '/opt/xchem-fragalysis-2/maxwin/openbind-hippo/a71ev2a/openbind_a71ev2a_c1_scaffold_products.sdf', '/opt/xchem-fragalysis-2/maxwin/openbind-hippo/a71ev2a/cycle_01/bulkdock/openbind_a71ev2a_c1_scaffold_products.sdf', '/opt/xchem-fragalysis-2/maxwin/openbind-hippo/a71ev2a/cycle_01/bulkdock/openbind_a71ev2a_c1_scaffolds.sdf']

>  <fragmenstein_runtime>  (1179) 
1.501936

$$$$
C9379-P171
     RDKit          3D

 14 14  0  0  0  0  0  0  0  0999 V2000
   11.0925   15.5381   19.0080 C   0  0  0  0  0  0  0  0  0  0  0  0
   11.2619   14.7951   20.3135 C   0  0  0  0  0  0  0  0  0  0  0  0
   11.6235   15.6815   21.4993 C   0  0  0  0  0  0  0  0  0  0  0  0
   11.4323   14.9466   22.8315 C   0  0  0  0  0  0  0  0  0  0  0  0
    9.9524   14.6444   23.1012 C   0  0  0  0  0  0  0  0  0  0  0  0
    9.6942   13.9823   24.4444 C   0  0  1  0  0  0  0  0  0  0  0  0
   10.3247   14.7293   25.4938 O   0  0  0  0  0  0  0  0  0  0  0  0
    8.1970   13.9960   24.7402 C   0  0  0  0  0  0  0  0  0  0  0  0
    7.7198   14.9724   25.3423 O   0  0  0  0  0  0  0  0  0  0  0  0
    7.2834   12.8667   24.2665 C   0  0  1  0  0  0  0  0  0  0  0  0
    7.8807   11.4794   24.1891 C   0  0  0  0  0  0  0  0  0  0  0  0
    7.6651   10.9257   25.5673 C   0  0  0  0  0  0  0  0  0  0  0  0
    6.4003   11.5650   26.0837 C   0  0  0  0  0  0  0  0  0  0  0  0
    6.1828   12.7305   25.2496 N   0  0  0  0  0  0  0  0  0  0  0  0
  1  2  1  0
  2  3  1  0
  3  4  1  0
  4  5  1  0
  5  6  1  0
  6  7  1  1
  6  8  1  0
  8  9  2  0
 10  8  1  1
 10 11  1  0
 11 12  1  0
 12 13  1  0
 13 14  1  0
 14 10  1  0
M  END
>  <ref_pdb>  (1180) 
A3581a

>  <subsites>  (1180) 
1 - Active Site

>  <HIPPO Compound ID>  (1180) 
8035

>  <energy_score>  (1180) 
-39.040037

>  <fragmenstein_mode>  (1180) 
expansion

>  <scratch_subdir>  (1180) 
/opt/xchem-fragalysis-2/maxwin/BulkDock/SCRATCH/511211/C9379-P171

>  <smiles>  (1180) 
CCCCC[C@@H](O)C(=O)[C@H]1CCCN1

>  <alias>  (1180) 
C9379-P171

>  <ref_mols>  (1180) 
A3581a,A0719a

>  <inspiration_score>  (1180) 
None

>  <tags>  (1180) 
BulkDock Fragalysis export,fragmenstein_placed,openbind_a71ev2a_c1_knitwork_impure,openbind_a71ev2a_c1_scaffolds

>  <fragmenstein_outcome>  (1180) 
acceptable

>  <fragmenstein_error>  (1180) 


>  <distance_score>  (1180) 
0.985944

>  <inchikey>  (1180) 
TYSPFWQJQMFSNU-UHFFFAOYSA-N

>  <name>  (1180) 
C9379-P171

>  <HIPPO Pose ID>  (1180) 
486995

>  <Energy>  (1180) 
63.492658

>  <exports>  (1180) 
['/opt/xchem-fragalysis-2/maxwin/BulkDock/OUTPUTS/openbind_a71ev2a_c1_knitwork_impure_165VXJF.sdf', '/opt/xchem-fragalysis-2/maxwin/BulkDock/OUTPUTS/openbind_a71ev2a_c1_knitwork_impure_1B07QS4.sdf', '/opt/xchem-fragalysis-2/maxwin/BulkDock/OUTPUTS/openbind_a71ev2a_c1_knitwork_impure_1B07X5R.sdf', '/opt/xchem-fragalysis-2/maxwin/openbind-hippo/a71ev2a/openbind_a71ev2a_c1_scaffold_products.sdf', '/opt/xchem-fragalysis-2/maxwin/openbind-hippo/a71ev2a/cycle_01/bulkdock/openbind_a71ev2a_c1_scaffold_products.sdf', '/opt/xchem-fragalysis-2/maxwin/openbind-hippo/a71ev2a/cycle_01/bulkdock/openbind_a71ev2a_c1_scaffolds.sdf']

>  <fragmenstein_runtime>  (1180) 
3.104365

$$$$
C961-P265
     RDKit          3D

 18 20  0  0  0  0  0  0  0  0999 V2000
   25.8941   12.9895   -2.4134 O   0  0  0  0  0  0  0  0  0  0  0  0
   24.9793   12.5126   -1.8612 C   0  0  0  0  0  0  0  0  0  0  0  0
   23.6311   11.9683   -2.4249 N   0  0  0  0  0  0  0  0  0  0  0  0
   23.1277   11.9877   -3.6987 N   0  0  0  0  0  0  0  0  0  0  0  0
   22.4600   10.8427   -4.0438 C   0  0  0  0  0  0  0  0  0  0  0  0
   21.8561   10.0245   -3.2404 N   0  0  0  0  0  0  0  0  0  0  0  0
   21.3503    8.8690   -4.0062 C   0  0  0  0  0  0  0  0  0  0  0  0
   21.1044    9.2718   -5.4493 C   0  0  0  0  0  0  0  0  0  0  0  0
   22.4146   10.4679   -5.7513 S   0  0  0  0  0  0  0  0  0  0  0  0
   24.9716   12.2117   -0.3537 C   0  0  1  0  0  0  0  0  0  0  0  0
   26.3361   12.4746    0.3061 C   0  0  0  0  0  0  0  0  0  0  0  0
   26.2472   12.2531    1.8211 C   0  0  0  0  0  0  0  0  0  0  0  0
   25.2292   13.2012    2.4610 C   0  0  0  0  0  0  0  0  0  0  0  0
   24.0346   13.3491    1.6629 N   0  0  0  0  0  0  0  0  0  0  0  0
   22.8689   13.9477    2.0101 C   0  0  0  0  0  0  0  0  0  0  0  0
   22.0482   13.9207    0.9835 N   0  0  0  0  0  0  0  0  0  0  0  0
   22.6929   13.2844   -0.0547 N   0  0  0  0  0  0  0  0  0  0  0  0
   23.9011   12.9637    0.3572 C   0  0  0  0  0  0  0  0  0  0  0  0
  1  2  2  0
  2  3  1  0
  3  4  1  0
  4  5  1  0
  5  6  2  0
  6  7  1  0
  7  8  1  0
  8  9  1  0
 10  2  1  6
 10 11  1  0
 11 12  1  0
 12 13  1  0
 13 14  1  0
 14 15  1  0
 15 16  2  0
 16 17  1  0
 17 18  2  0
  9  5  1  0
 18 10  1  0
 18 14  1  0
M  END
>  <ref_pdb>  (1181) 
A4012b

>  <subsites>  (1181) 
1 - Active Site,6 - A0486/A/147/1

>  <HIPPO Compound ID>  (1181) 
1447

>  <energy_score>  (1181) 
-51.2158

>  <fragmenstein_mode>  (1181) 
expansion

>  <scratch_subdir>  (1181) 
/opt/xchem-fragalysis-2/maxwin/BulkDock/SCRATCH/511211/C961-P265

>  <smiles>  (1181) 
O=C(NNC1=NCCS1)[C@H]1CCCn2cnnc21

>  <alias>  (1181) 
C961-P265

>  <ref_mols>  (1181) 
A4012b,A0239a

>  <inspiration_score>  (1181) 
None

>  <tags>  (1181) 
BulkDock Fragalysis export,fragmenstein_placed,openbind_a71ev2a_c1_knitwork_impure,openbind_a71ev2a_c1_scaffolds

>  <fragmenstein_outcome>  (1181) 
acceptable

>  <fragmenstein_error>  (1181) 


>  <distance_score>  (1181) 
0.514336

>  <inchikey>  (1181) 
OMXQSZKGPNAOCE-UHFFFAOYSA-N

>  <name>  (1181) 
C961-P265

>  <HIPPO Pose ID>  (1181) 
487262

>  <Energy>  (1181) 
28.422827

>  <exports>  (1181) 
['/opt/xchem-fragalysis-2/maxwin/BulkDock/OUTPUTS/openbind_a71ev2a_c1_knitwork_impure_165VXJF.sdf', '/opt/xchem-fragalysis-2/maxwin/BulkDock/OUTPUTS/openbind_a71ev2a_c1_knitwork_impure_1B07QS4.sdf', '/opt/xchem-fragalysis-2/maxwin/BulkDock/OUTPUTS/openbind_a71ev2a_c1_knitwork_impure_1B07X5R.sdf', '/opt/xchem-fragalysis-2/maxwin/openbind-hippo/a71ev2a/openbind_a71ev2a_c1_scaffold_products.sdf', '/opt/xchem-fragalysis-2/maxwin/openbind-hippo/a71ev2a/cycle_01/bulkdock/openbind_a71ev2a_c1_scaffold_products.sdf', '/opt/xchem-fragalysis-2/maxwin/openbind-hippo/a71ev2a/cycle_01/bulkdock/openbind_a71ev2a_c1_scaffolds.sdf']

>  <fragmenstein_runtime>  (1181) 
1.326269

$$$$
C25757-P277
     RDKit          3D

 15 15  0  0  0  0  0  0  0  0999 V2000
   12.2474   16.1931   22.2359 C   0  0  0  0  0  0  0  0  0  0  0  0
   11.5611   15.1170   21.4378 C   0  0  0  0  0  0  0  0  0  0  0  0
   11.5397   15.4700   20.1309 F   0  0  0  0  0  0  0  0  0  0  0  0
   12.3030   13.9837   21.5290 F   0  0  0  0  0  0  0  0  0  0  0  0
   10.1497   14.7948   21.8998 C   0  0  0  0  0  0  0  0  0  0  0  0
   10.1212   14.3485   23.3634 C   0  0  0  0  0  0  0  0  0  0  0  0
    8.8901   13.5006   23.6707 C   0  0  0  0  0  0  0  0  0  0  0  0
    8.7932   13.0481   25.1374 C   0  0  2  0  0  0  0  0  0  0  0  0
    8.6025   14.2534   26.0548 C   0  0  0  0  0  0  0  0  0  0  0  0
    9.9798   12.4550   25.4584 F   0  0  0  0  0  0  0  0  0  0  0  0
    7.6439   12.0093   25.2913 C   0  0  1  0  0  0  0  0  0  0  0  0
    8.0453   10.6188   24.8120 C   0  0  0  0  0  0  0  0  0  0  0  0
    7.0317    9.6876   25.4454 C   0  0  0  0  0  0  0  0  0  0  0  0
    6.3415   10.5024   26.5188 C   0  0  0  0  0  0  0  0  0  0  0  0
    7.1575   11.7102   26.6567 N   0  0  0  0  0  0  0  0  0  0  0  0
  1  2  1  0
  2  3  1  0
  2  4  1  0
  2  5  1  0
  5  6  1  0
  6  7  1  0
  7  8  1  0
  8  9  1  1
  8 10  1  0
  8 11  1  0
 11 12  1  1
 12 13  1  0
 13 14  1  0
 14 15  1  0
 15 11  1  0
M  END
>  <ref_pdb>  (1182) 
A4032b

>  <subsites>  (1182) 
1 - Active Site

>  <HIPPO Compound ID>  (1182) 
8159

>  <energy_score>  (1182) 
-20.340162

>  <fragmenstein_mode>  (1182) 
expansion

>  <scratch_subdir>  (1182) 
/opt/xchem-fragalysis-2/maxwin/BulkDock/SCRATCH/511211/C25757-P277

>  <smiles>  (1182) 
CC(F)(F)CCC[C@](C)(F)[C@H]1CCCN1

>  <alias>  (1182) 
C25757-P277

>  <ref_mols>  (1182) 
A1779a,A4032b

>  <inspiration_score>  (1182) 
None

>  <tags>  (1182) 
BulkDock Fragalysis export,fragmenstein_placed,openbind_a71ev2a_c1_knitwork_impure,openbind_a71ev2a_c1_scaffolds

>  <fragmenstein_outcome>  (1182) 
acceptable

>  <fragmenstein_error>  (1182) 


>  <distance_score>  (1182) 
0.99217

>  <inchikey>  (1182) 
YKFFHGCNYWTCOY-UHFFFAOYSA-N

>  <name>  (1182) 
C25757-P277

>  <HIPPO Pose ID>  (1182) 
487286

>  <Energy>  (1182) 
48.561787

>  <exports>  (1182) 
['/opt/xchem-fragalysis-2/maxwin/BulkDock/OUTPUTS/openbind_a71ev2a_c1_knitwork_impure_165VXJF.sdf', '/opt/xchem-fragalysis-2/maxwin/BulkDock/OUTPUTS/openbind_a71ev2a_c1_knitwork_impure_1B07QS4.sdf', '/opt/xchem-fragalysis-2/maxwin/BulkDock/OUTPUTS/openbind_a71ev2a_c1_knitwork_impure_1B07X5R.sdf', '/opt/xchem-fragalysis-2/maxwin/openbind-hippo/a71ev2a/openbind_a71ev2a_c1_scaffold_products.sdf', '/opt/xchem-fragalysis-2/maxwin/openbind-hippo/a71ev2a/cycle_01/bulkdock/openbind_a71ev2a_c1_scaffold_products.sdf', '/opt/xchem-fragalysis-2/maxwin/openbind-hippo/a71ev2a/cycle_01/bulkdock/openbind_a71ev2a_c1_scaffolds.sdf']

>  <fragmenstein_runtime>  (1182) 
5.717189

$$$$
C842-P405
     RDKit          3D

 22 25  0  0  0  0  0  0  0  0999 V2000
   32.2196   21.8912   21.9331 C   0  0  0  0  0  0  0  0  0  0  0  0
   33.1066   20.8694   21.5743 C   0  0  0  0  0  0  0  0  0  0  0  0
   33.1407   20.4904   20.2509 C   0  0  0  0  0  0  0  0  0  0  0  0
   32.3622   21.1108   19.3036 C   0  0  0  0  0  0  0  0  0  0  0  0
   31.4964   22.1343   19.6240 C   0  0  0  0  0  0  0  0  0  0  0  0
   31.3977   22.5193   20.9687 C   0  0  0  0  0  0  0  0  0  0  0  0
   30.4567   23.5633   21.3800 C   0  0  0  0  0  0  0  0  0  0  0  0
   30.8194   24.4918   22.2833 N   0  0  0  0  0  0  0  0  0  0  0  0
   29.7547   25.2957   22.3833 N   0  0  0  0  0  0  0  0  0  0  0  0
   28.7092   24.9191   21.6061 C   0  0  0  0  0  0  0  0  0  0  0  0
   29.1056   23.7735   20.9422 C   0  0  0  0  0  0  0  0  0  0  0  0
   28.3197   22.9559   19.9683 C   0  0  0  0  0  0  0  0  0  0  0  0
   26.8874   22.9831   20.2836 N   0  0  0  0  0  0  0  0  0  0  0  0
   26.5222   22.0743   21.3846 C   0  0  0  0  0  0  0  0  0  0  0  0
   26.4342   20.6171   20.9240 C   0  0  0  0  0  0  0  0  0  0  0  0
   25.9037   19.7102   22.0307 C   0  0  0  0  0  0  0  0  0  0  0  0
   24.6035   20.1596   22.5362 N   0  0  0  0  0  0  0  0  0  0  0  0
   24.6681   21.5433   23.0040 C   0  0  0  0  0  0  0  0  0  0  0  0
   25.1517   22.5056   21.9221 C   0  0  0  0  0  0  0  0  0  0  0  0
   32.5511   20.6002   18.0586 O   0  0  0  0  0  0  0  0  0  0  0  0
   33.4625   19.5208   18.3458 C   0  0  0  0  0  0  0  0  0  0  0  0
   33.9055   19.4973   19.7233 O   0  0  0  0  0  0  0  0  0  0  0  0
  1  2  2  0
  2  3  1  0
  3  4  2  0
  4  5  1  0
  5  6  2  0
  6  7  1  0
  7  8  2  0
  8  9  1  0
  9 10  1  0
 10 11  2  0
 11 12  1  0
 12 13  1  0
 13 14  1  0
 14 15  1  0
 15 16  1  0
 16 17  1  0
 17 18  1  0
 18 19  1  0
  4 20  1  0
 20 21  1  0
 21 22  1  0
  6  1  1  0
 11  7  1  0
 19 14  1  0
 22  3  1  0
M  END
>  <ref_pdb>  (1183) 
A4570a

>  <subsites>  (1183) 
1 - Active Site,5 - A3181/A/202/1

>  <HIPPO Compound ID>  (1183) 
7230

>  <energy_score>  (1183) 
-42.402628

>  <fragmenstein_mode>  (1183) 
expansion

>  <scratch_subdir>  (1183) 
/opt/xchem-fragalysis-2/maxwin/BulkDock/SCRATCH/511211/C842-P405

>  <smiles>  (1183) 
c1cc2c(cc1-c1n[nH]cc1CNC1CCNCC1)OCO2

>  <alias>  (1183) 
C842-P405

>  <ref_mols>  (1183) 
A0351b,A4570a

>  <inspiration_score>  (1183) 
None

>  <tags>  (1183) 
BulkDock Fragalysis export,fragmenstein_placed,openbind_a71ev2a_c1_knitwork_impure,openbind_a71ev2a_c1_scaffolds

>  <fragmenstein_outcome>  (1183) 
acceptable

>  <fragmenstein_error>  (1183) 


>  <distance_score>  (1183) 
0.998273

>  <inchikey>  (1183) 
OWOZFTOSAOYWMO-UHFFFAOYSA-N

>  <name>  (1183) 
C842-P405

>  <HIPPO Pose ID>  (1183) 
487305

>  <Energy>  (1183) 
20.829394

>  <exports>  (1183) 
['/opt/xchem-fragalysis-2/maxwin/BulkDock/OUTPUTS/openbind_a71ev2a_c1_knitwork_impure_165VXJF.sdf', '/opt/xchem-fragalysis-2/maxwin/BulkDock/OUTPUTS/openbind_a71ev2a_c1_knitwork_impure_1B07QS4.sdf', '/opt/xchem-fragalysis-2/maxwin/BulkDock/OUTPUTS/openbind_a71ev2a_c1_knitwork_impure_1B07X5R.sdf', '/opt/xchem-fragalysis-2/maxwin/openbind-hippo/a71ev2a/openbind_a71ev2a_c1_scaffold_products.sdf', '/opt/xchem-fragalysis-2/maxwin/openbind-hippo/a71ev2a/cycle_01/bulkdock/openbind_a71ev2a_c1_scaffold_products.sdf', '/opt/xchem-fragalysis-2/maxwin/openbind-hippo/a71ev2a/cycle_01/bulkdock/openbind_a71ev2a_c1_scaffolds.sdf']

>  <fragmenstein_runtime>  (1183) 
5.470169

$$$$
C901-P405
     RDKit          3D

 23 26  0  0  0  0  0  0  0  0999 V2000
   26.0208   16.4861   24.9219 O   0  0  0  0  0  0  0  0  0  0  0  0
   25.1795   17.2938   25.0201 C   0  0  0  0  0  0  0  0  0  0  0  0
   25.3325   18.7067   24.4758 C   0  0  0  0  0  0  0  0  0  0  0  0
   24.3916   19.0094   23.3106 C   0  0  0  0  0  0  0  0  0  0  0  0
   24.9529   20.1184   22.4563 C   0  0  0  0  0  0  0  0  0  0  0  0
   24.4555   21.4350   22.5454 C   0  0  0  0  0  0  0  0  0  0  0  0
   25.0213   22.4649   21.7847 C   0  0  0  0  0  0  0  0  0  0  0  0
   26.0755   22.1505   20.9538 C   0  0  0  0  0  0  0  0  0  0  0  0
   26.5652   20.8723   20.8633 C   0  0  0  0  0  0  0  0  0  0  0  0
   26.0249   19.8391   21.5940 C   0  0  0  0  0  0  0  0  0  0  0  0
   27.6101   20.7727   20.0015 O   0  0  0  0  0  0  0  0  0  0  0  0
   27.6798   22.1224   19.5079 C   0  0  0  0  0  0  0  0  0  0  0  0
   26.7476   23.0192   20.1516 O   0  0  0  0  0  0  0  0  0  0  0  0
   23.8065   17.2341   25.7432 N   0  0  0  0  0  0  0  0  0  0  0  0
   23.1865   16.2053   26.3714 C   0  0  0  0  0  0  0  0  0  0  0  0
   23.6753   14.9007   26.5782 C   0  0  0  0  0  0  0  0  0  0  0  0
   22.6795   14.2569   27.2752 C   0  0  0  0  0  0  0  0  0  0  0  0
   21.6703   15.1695   27.4065 N   0  0  0  0  0  0  0  0  0  0  0  0
   20.4358   14.9328   28.1772 C   0  0  0  0  0  0  0  0  0  0  0  0
   19.7342   13.5871   27.8626 C   0  0  0  0  0  0  0  0  0  0  0  0
   18.3980   14.3525   27.9716 C   0  0  0  0  0  0  0  0  0  0  0  0
   19.1838   15.6178   27.5688 C   0  0  0  0  0  0  0  0  0  0  0  0
   21.9789   16.3786   26.9063 N   0  0  0  0  0  0  0  0  0  0  0  0
  1  2  2  0
  2  3  1  0
  3  4  1  0
  4  5  1  0
  5  6  2  0
  6  7  1  0
  7  8  2  0
  8  9  1  0
  9 10  2  0
  9 11  1  0
 11 12  1  0
 12 13  1  0
  2 14  1  0
 14 15  1  0
 15 16  1  0
 16 17  2  0
 17 18  1  0
 18 19  1  0
 19 20  1  0
 20 21  1  0
 21 22  1  0
 18 23  1  0
 10  5  1  0
 23 15  2  0
 13  8  1  0
 22 19  1  0
M  END
>  <ref_pdb>  (1184) 
A4570a

>  <subsites>  (1184) 
1 - Active Site,5 - A3181/A/202/1

>  <HIPPO Compound ID>  (1184) 
901

>  <energy_score>  (1184) 
-49.373895

>  <fragmenstein_mode>  (1184) 
expansion

>  <scratch_subdir>  (1184) 
/opt/xchem-fragalysis-2/maxwin/BulkDock/SCRATCH/511211/C901-P405

>  <smiles>  (1184) 
O=C(CCc1ccc2c(c1)OCO2)Nc1ccn(C2CCC2)n1

>  <alias>  (1184) 
C901-P405

>  <ref_mols>  (1184) 
A0351b,A4570a

>  <inspiration_score>  (1184) 
None

>  <tags>  (1184) 
BulkDock Fragalysis export,fragmenstein_placed,openbind_a71ev2a_c1_knitwork_impure,openbind_a71ev2a_c1_scaffolds

>  <fragmenstein_outcome>  (1184) 
acceptable

>  <fragmenstein_error>  (1184) 


>  <distance_score>  (1184) 
0.871589

>  <inchikey>  (1184) 
DAXDOXZPNQGVDA-UHFFFAOYSA-N

>  <name>  (1184) 
C901-P405

>  <HIPPO Pose ID>  (1184) 
487315

>  <Energy>  (1184) 
2.101881

>  <exports>  (1184) 
['/opt/xchem-fragalysis-2/maxwin/BulkDock/OUTPUTS/openbind_a71ev2a_c1_knitwork_impure_165VXJF.sdf', '/opt/xchem-fragalysis-2/maxwin/BulkDock/OUTPUTS/openbind_a71ev2a_c1_knitwork_impure_1B07QS4.sdf', '/opt/xchem-fragalysis-2/maxwin/BulkDock/OUTPUTS/openbind_a71ev2a_c1_knitwork_impure_1B07X5R.sdf', '/opt/xchem-fragalysis-2/maxwin/openbind-hippo/a71ev2a/openbind_a71ev2a_c1_scaffold_products.sdf', '/opt/xchem-fragalysis-2/maxwin/openbind-hippo/a71ev2a/cycle_01/bulkdock/openbind_a71ev2a_c1_scaffold_products.sdf', '/opt/xchem-fragalysis-2/maxwin/openbind-hippo/a71ev2a/cycle_01/bulkdock/openbind_a71ev2a_c1_scaffolds.sdf']

>  <fragmenstein_runtime>  (1184) 
11.064248

$$$$
C83889-P135
     RDKit          3D

 18 20  0  0  0  0  0  0  0  0999 V2000
    9.8099   14.3449   24.3500 Cl  0  0  0  0  0  0  0  0  0  0  0  0
    9.6230   12.6788   24.0862 C   0  0  0  0  0  0  0  0  0  0  0  0
    8.7178   12.0090   24.9088 C   0  0  0  0  0  0  0  0  0  0  0  0
    8.4855   10.6812   24.8636 N   0  0  0  0  0  0  0  0  0  0  0  0
    9.1996   10.0043   23.9407 C   0  0  0  0  0  0  0  0  0  0  0  0
   10.1229   10.5936   23.0804 C   0  0  0  0  0  0  0  0  0  0  0  0
   10.3588   11.9741   23.1262 C   0  0  0  0  0  0  0  0  0  0  0  0
   11.3719   12.5353   22.3043 N   0  0  0  0  0  0  0  0  0  0  0  0
   11.0062   13.6548   21.4017 C   0  0  0  0  0  0  0  0  0  0  0  0
   12.1467   14.5857   21.0395 C   0  0  0  0  0  0  0  0  0  0  0  0
   12.9296   15.0879   22.0617 C   0  0  0  0  0  0  0  0  0  0  0  0
   13.8399   16.1108   21.8278 C   0  0  0  0  0  0  0  0  0  0  0  0
   13.9698   16.8079   20.6530 C   0  0  0  0  0  0  0  0  0  0  0  0
   13.2780   16.2808   19.5905 C   0  0  0  0  0  0  0  0  0  0  0  0
   13.2762   16.6692   18.2397 C   0  0  0  0  0  0  0  0  0  0  0  0
   12.3973   15.8392   17.6140 C   0  0  0  0  0  0  0  0  0  0  0  0
   11.9364   14.9227   18.5217 N   0  0  0  0  0  0  0  0  0  0  0  0
   12.4256   15.1815   19.7766 C   0  0  0  0  0  0  0  0  0  0  0  0
  1  2  1  0
  2  3  2  0
  3  4  1  0
  4  5  2  0
  5  6  1  0
  6  7  2  0
  7  8  1  0
  8  9  1  0
  9 10  1  0
 10 11  2  0
 11 12  1  0
 12 13  2  0
 13 14  1  0
 14 15  1  0
 15 16  2  0
 16 17  1  0
 17 18  1  0
  7  2  1  0
 18 10  1  0
 18 14  2  0
M  END
>  <ref_pdb>  (1185) 
A2629a

>  <subsites>  (1185) 
1 - Active Site

>  <HIPPO Compound ID>  (1185) 
8486

>  <energy_score>  (1185) 
-331.434031

>  <fragmenstein_mode>  (1185) 
expansion

>  <scratch_subdir>  (1185) 
/opt/xchem-fragalysis-2/maxwin/BulkDock/SCRATCH/511211/C83889-P135

>  <smiles>  (1185) 
Clc1cnccc1NCc1cccc2cc[nH]c12

>  <alias>  (1185) 
C83889-P135

>  <ref_mols>  (1185) 
A3568a,A2629a

>  <inspiration_score>  (1185) 
None

>  <tags>  (1185) 
BulkDock Fragalysis export,fragmenstein_placed,openbind_a71ev2a_c1_knitwork_impure,openbind_a71ev2a_c1_scaffolds

>  <fragmenstein_outcome>  (1185) 
acceptable

>  <fragmenstein_error>  (1185) 


>  <distance_score>  (1185) 
0.886406

>  <inchikey>  (1185) 
NNLIRPSRTSJYLQ-UHFFFAOYSA-N

>  <name>  (1185) 
C83889-P135

>  <HIPPO Pose ID>  (1185) 
487673

>  <Energy>  (1185) 
77.721885

>  <exports>  (1185) 
['/opt/xchem-fragalysis-2/maxwin/BulkDock/OUTPUTS/openbind_a71ev2a_c1_knitwork_impure_165VXJF.sdf', '/opt/xchem-fragalysis-2/maxwin/BulkDock/OUTPUTS/openbind_a71ev2a_c1_knitwork_impure_1B07QS4.sdf', '/opt/xchem-fragalysis-2/maxwin/BulkDock/OUTPUTS/openbind_a71ev2a_c1_knitwork_impure_1B07X5R.sdf', '/opt/xchem-fragalysis-2/maxwin/openbind-hippo/a71ev2a/openbind_a71ev2a_c1_scaffold_products.sdf', '/opt/xchem-fragalysis-2/maxwin/openbind-hippo/a71ev2a/cycle_01/bulkdock/openbind_a71ev2a_c1_scaffold_products.sdf', '/opt/xchem-fragalysis-2/maxwin/openbind-hippo/a71ev2a/cycle_01/bulkdock/openbind_a71ev2a_c1_scaffolds.sdf']

>  <fragmenstein_runtime>  (1185) 
1.290173

$$$$
C53105-P135
     RDKit          3D

 18 20  0  0  0  0  0  0  0  0999 V2000
   10.0575   13.7630   24.9641 C   0  0  0  0  0  0  0  0  0  0  0  0
    9.6894   12.4196   24.4539 C   0  0  0  0  0  0  0  0  0  0  0  0
    8.6980   11.7174   25.1379 C   0  0  0  0  0  0  0  0  0  0  0  0
    8.3612   10.4437   24.8797 N   0  0  0  0  0  0  0  0  0  0  0  0
    9.0525    9.8480   23.8855 C   0  0  0  0  0  0  0  0  0  0  0  0
   10.0188   10.4791   23.1155 C   0  0  0  0  0  0  0  0  0  0  0  0
   10.3362   11.8137   23.3645 C   0  0  0  0  0  0  0  0  0  0  0  0
   11.3475   12.4454   22.5891 N   0  0  0  0  0  0  0  0  0  0  0  0
   10.9254   13.6832   21.9304 C   0  0  0  0  0  0  0  0  0  0  0  0
   11.9760   14.3510   21.0678 C   0  0  0  0  0  0  0  0  0  0  0  0
   12.0012   14.1517   19.6857 C   0  0  0  0  0  0  0  0  0  0  0  0
   12.6430   15.0331   18.8115 C   0  0  0  0  0  0  0  0  0  0  0  0
   13.3110   16.1410   19.3361 C   0  0  0  0  0  0  0  0  0  0  0  0
   13.9935   17.2491   18.7706 C   0  0  0  0  0  0  0  0  0  0  0  0
   14.4507   18.0247   19.8097 C   0  0  0  0  0  0  0  0  0  0  0  0
   14.1063   17.3978   20.9747 N   0  0  0  0  0  0  0  0  0  0  0  0
   13.3673   16.2752   20.7194 C   0  0  0  0  0  0  0  0  0  0  0  0
   12.7470   15.3850   21.6044 C   0  0  0  0  0  0  0  0  0  0  0  0
  1  2  1  0
  2  3  2  0
  3  4  1  0
  4  5  2  0
  5  6  1  0
  6  7  2  0
  7  8  1  0
  8  9  1  0
  9 10  1  0
 10 11  2  0
 11 12  1  0
 12 13  2  0
 13 14  1  0
 14 15  2  0
 15 16  1  0
 16 17  1  0
 17 18  2  0
  7  2  1  0
 18 10  1  0
 17 13  1  0
M  END
>  <ref_pdb>  (1186) 
A2629a

>  <subsites>  (1186) 
1 - Active Site

>  <HIPPO Compound ID>  (1186) 
53105

>  <energy_score>  (1186) 
-11.979469

>  <fragmenstein_mode>  (1186) 
expansion

>  <scratch_subdir>  (1186) 
/opt/xchem-fragalysis-2/maxwin/BulkDock/SCRATCH/511211/C53105-P135

>  <smiles>  (1186) 
Cc1cnccc1NCc1ccc2cc[nH]c2c1

>  <alias>  (1186) 
C53105-P135

>  <ref_mols>  (1186) 
A3568a,A2629a

>  <inspiration_score>  (1186) 
None

>  <tags>  (1186) 
BulkDock Fragalysis export,fragmenstein_placed,openbind_a71ev2a_c1_knitwork_impure,openbind_a71ev2a_c1_scaffolds

>  <fragmenstein_outcome>  (1186) 
acceptable

>  <fragmenstein_error>  (1186) 


>  <distance_score>  (1186) 
0.969415

>  <inchikey>  (1186) 
WYTLJIODCWWXCM-UHFFFAOYSA-N

>  <name>  (1186) 
C53105-P135

>  <HIPPO Pose ID>  (1186) 
487675

>  <Energy>  (1186) 
41.233135

>  <exports>  (1186) 
['/opt/xchem-fragalysis-2/maxwin/BulkDock/OUTPUTS/openbind_a71ev2a_c1_knitwork_impure_165VXJF.sdf', '/opt/xchem-fragalysis-2/maxwin/BulkDock/OUTPUTS/openbind_a71ev2a_c1_knitwork_impure_1B07QS4.sdf', '/opt/xchem-fragalysis-2/maxwin/BulkDock/OUTPUTS/openbind_a71ev2a_c1_knitwork_impure_1B07X5R.sdf', '/opt/xchem-fragalysis-2/maxwin/openbind-hippo/a71ev2a/openbind_a71ev2a_c1_scaffold_products.sdf', '/opt/xchem-fragalysis-2/maxwin/openbind-hippo/a71ev2a/cycle_01/bulkdock/openbind_a71ev2a_c1_scaffold_products.sdf', '/opt/xchem-fragalysis-2/maxwin/openbind-hippo/a71ev2a/cycle_01/bulkdock/openbind_a71ev2a_c1_scaffolds.sdf']

>  <fragmenstein_runtime>  (1186) 
2.1921

$$$$
C7492-P161
     RDKit          3D

 14 14  0  0  0  0  0  0  0  0999 V2000
   12.3266   15.8646   21.8868 C   0  0  0  0  0  0  0  0  0  0  0  0
   12.0083   14.9238   23.0471 C   0  0  0  0  0  0  0  0  0  0  0  0
   10.8197   15.3623   23.8997 C   0  0  0  0  0  0  0  0  0  0  0  0
    9.4208   15.2254   23.2729 C   0  0  2  0  0  0  0  0  0  0  0  0
    8.7788   13.8236   23.4079 C   0  0  0  0  0  0  0  0  0  0  0  0
    8.5372   13.4562   24.8236 N   0  0  0  0  0  0  0  0  0  0  0  0
    7.4278   12.5074   24.8683 N   0  0  0  0  0  0  0  0  0  0  0  0
    7.8954   11.1535   24.5624 C   0  0  0  0  0  0  0  0  0  0  0  0
    7.4815   10.0876   25.5554 C   0  0  0  0  0  0  0  0  0  0  0  0
    6.0757   10.1780   26.1073 C   0  0  0  0  0  0  0  0  0  0  0  0
    5.6180   11.6023   26.3707 C   0  0  0  0  0  0  0  0  0  0  0  0
    6.7059   12.6441   26.1362 C   0  0  0  0  0  0  0  0  0  0  0  0
    9.3737   15.7978   21.9671 O   0  0  0  0  0  0  0  0  0  0  0  0
    9.5262   14.9105   20.8775 C   0  0  0  0  0  0  0  0  0  0  0  0
  1  2  1  0
  2  3  1  0
  4  3  1  6
  4  5  1  0
  5  6  1  0
  6  7  1  0
  7  8  1  0
  8  9  1  0
  9 10  1  0
 10 11  1  0
 11 12  1  0
  4 13  1  0
 13 14  1  0
 12  7  1  0
M  END
>  <ref_pdb>  (1187) 
A3229a

>  <subsites>  (1187) 
1 - Active Site

>  <HIPPO Compound ID>  (1187) 
5289

>  <energy_score>  (1187) 
-25.454576

>  <fragmenstein_mode>  (1187) 
expansion

>  <scratch_subdir>  (1187) 
/opt/xchem-fragalysis-2/maxwin/BulkDock/SCRATCH/511211/C7492-P161

>  <smiles>  (1187) 
CCC[C@H](CNN1CCCCC1)OC

>  <alias>  (1187) 
C7492-P161

>  <ref_mols>  (1187) 
A1445a,A3229a

>  <inspiration_score>  (1187) 
None

>  <tags>  (1187) 
BulkDock Fragalysis export,fragmenstein_placed,openbind_a71ev2a_c1_knitwork_impure,openbind_a71ev2a_c1_scaffolds

>  <fragmenstein_outcome>  (1187) 
acceptable

>  <fragmenstein_error>  (1187) 


>  <distance_score>  (1187) 
0.888115

>  <inchikey>  (1187) 
UENQPBXXWCZQQQ-UHFFFAOYSA-N

>  <name>  (1187) 
C7492-P161

>  <HIPPO Pose ID>  (1187) 
487785

>  <Energy>  (1187) 
80.625869

>  <exports>  (1187) 
['/opt/xchem-fragalysis-2/maxwin/BulkDock/OUTPUTS/openbind_a71ev2a_c1_knitwork_impure_165VXJF.sdf', '/opt/xchem-fragalysis-2/maxwin/BulkDock/OUTPUTS/openbind_a71ev2a_c1_knitwork_impure_1B07QS4.sdf', '/opt/xchem-fragalysis-2/maxwin/BulkDock/OUTPUTS/openbind_a71ev2a_c1_knitwork_impure_1B07X5R.sdf', '/opt/xchem-fragalysis-2/maxwin/openbind-hippo/a71ev2a/openbind_a71ev2a_c1_scaffold_products.sdf', '/opt/xchem-fragalysis-2/maxwin/openbind-hippo/a71ev2a/cycle_01/bulkdock/openbind_a71ev2a_c1_scaffold_products.sdf', '/opt/xchem-fragalysis-2/maxwin/openbind-hippo/a71ev2a/cycle_01/bulkdock/openbind_a71ev2a_c1_scaffolds.sdf']

>  <fragmenstein_runtime>  (1187) 
6.559939

$$$$
C38594-P122
     RDKit          3D

 13 13  0  0  0  0  0  0  0  0999 V2000
    7.2709   12.1459   26.6798 C   0  0  0  0  0  0  0  0  0  0  0  0
    7.2583   11.3272   25.4002 C   0  0  0  0  0  0  0  0  0  0  0  0
    8.5903   10.6670   25.0620 C   0  0  0  0  0  0  0  0  0  0  0  0
    9.6225   11.4575   24.3048 C   0  0  0  0  0  0  0  0  0  0  0  0
   10.6633   10.9036   23.9476 O   0  0  0  0  0  0  0  0  0  0  0  0
    9.3432   12.9243   24.0813 C   0  0  0  0  0  0  0  0  0  0  0  0
   10.4228   13.6066   23.4289 N   0  0  0  0  0  0  0  0  0  0  0  0
   10.5841   13.3152   22.0143 C   0  0  0  0  0  0  0  0  0  0  0  0
   11.8060   13.9016   21.3504 C   0  0  0  0  0  0  0  0  0  0  0  0
   12.2787   15.1049   22.1192 C   0  0  0  0  0  0  0  0  0  0  0  0
   12.6422   14.6266   23.5129 C   0  0  0  0  0  0  0  0  0  0  0  0
   11.4218   14.1282   24.2288 C   0  0  0  0  0  0  0  0  0  0  0  0
   11.3512   14.1453   25.4582 O   0  0  0  0  0  0  0  0  0  0  0  0
  1  2  1  0
  2  3  1  0
  3  4  1  0
  4  5  2  0
  4  6  1  0
  6  7  1  0
  7  8  1  0
  8  9  1  0
  9 10  1  0
 10 11  1  0
 11 12  1  0
 12 13  2  0
 12  7  1  0
M  END
>  <ref_pdb>  (1188) 
A1775a

>  <subsites>  (1188) 
1 - Active Site

>  <HIPPO Compound ID>  (1188) 
1404

>  <energy_score>  (1188) 
-20.672398

>  <fragmenstein_mode>  (1188) 
expansion

>  <scratch_subdir>  (1188) 
/opt/xchem-fragalysis-2/maxwin/BulkDock/SCRATCH/511211/C38594-P122

>  <smiles>  (1188) 
CCCC(=O)CN1CCCCC1=O

>  <alias>  (1188) 
C38594-P122

>  <ref_mols>  (1188) 
A1775a,A4563a

>  <inspiration_score>  (1188) 
None

>  <tags>  (1188) 
BulkDock Fragalysis export,fragmenstein_placed,openbind_a71ev2a_c1_knitwork_impure,openbind_a71ev2a_c1_scaffolds

>  <fragmenstein_outcome>  (1188) 
acceptable

>  <fragmenstein_error>  (1188) 


>  <distance_score>  (1188) 
0.893614

>  <inchikey>  (1188) 
NLXFVKOJESFEML-UHFFFAOYSA-N

>  <name>  (1188) 
C38594-P122

>  <HIPPO Pose ID>  (1188) 
487885

>  <Energy>  (1188) 
14.951482

>  <exports>  (1188) 
['/opt/xchem-fragalysis-2/maxwin/BulkDock/OUTPUTS/openbind_a71ev2a_c1_knitwork_impure_165VXJF.sdf', '/opt/xchem-fragalysis-2/maxwin/BulkDock/OUTPUTS/openbind_a71ev2a_c1_knitwork_impure_1B07QS4.sdf', '/opt/xchem-fragalysis-2/maxwin/BulkDock/OUTPUTS/openbind_a71ev2a_c1_knitwork_impure_1B07X5R.sdf', '/opt/xchem-fragalysis-2/maxwin/openbind-hippo/a71ev2a/openbind_a71ev2a_c1_scaffold_products.sdf', '/opt/xchem-fragalysis-2/maxwin/openbind-hippo/a71ev2a/cycle_01/bulkdock/openbind_a71ev2a_c1_scaffold_products.sdf', '/opt/xchem-fragalysis-2/maxwin/openbind-hippo/a71ev2a/cycle_01/bulkdock/openbind_a71ev2a_c1_scaffolds.sdf']

>  <fragmenstein_runtime>  (1188) 
1.107218

$$$$
C38598-P404
     RDKit          3D

 13 13  0  0  0  0  0  0  0  0999 V2000
    7.1092   12.4676   26.0593 C   0  0  0  0  0  0  0  0  0  0  0  0
    7.9950   11.3889   25.7681 O   0  0  0  0  0  0  0  0  0  0  0  0
    8.3490   11.3645   24.3968 C   0  0  2  0  0  0  0  0  0  0  0  0
    8.9018   10.0040   24.0406 C   0  0  0  0  0  0  0  0  0  0  0  0
    9.3948   12.3795   24.0262 C   0  0  0  0  0  0  0  0  0  0  0  0
    9.1242   13.2566   23.1186 N   0  0  0  0  0  0  0  0  0  0  0  0
   10.1330   14.1266   22.7737 N   0  0  0  0  0  0  0  0  0  0  0  0
    9.9856   14.7111   21.4448 C   0  0  0  0  0  0  0  0  0  0  0  0
   11.3325   15.0584   20.8474 C   0  0  0  0  0  0  0  0  0  0  0  0
   11.9910   16.0666   21.7631 C   0  0  0  0  0  0  0  0  0  0  0  0
   12.1164   15.5484   23.1813 C   0  0  0  0  0  0  0  0  0  0  0  0
   10.9992   14.6817   23.7189 C   0  0  0  0  0  0  0  0  0  0  0  0
   10.9742   14.4425   24.9320 O   0  0  0  0  0  0  0  0  0  0  0  0
  1  2  1  0
  2  3  1  0
  3  4  1  1
  3  5  1  0
  5  6  2  3
  6  7  1  0
  7  8  1  0
  8  9  1  0
  9 10  1  0
 10 11  1  0
 11 12  1  0
 12 13  2  0
 12  7  1  0
M  END
>  <ref_pdb>  (1189) 
A4563a

>  <subsites>  (1189) 
1 - Active Site

>  <HIPPO Compound ID>  (1189) 
38598

>  <energy_score>  (1189) 
-30.332322

>  <fragmenstein_mode>  (1189) 
expansion

>  <scratch_subdir>  (1189) 
/opt/xchem-fragalysis-2/maxwin/BulkDock/SCRATCH/511211/C38598-P404

>  <smiles>  (1189) 
CO[C@H](C)C=NN1CCCCC1=O

>  <alias>  (1189) 
C38598-P404

>  <ref_mols>  (1189) 
A1775a,A4563a

>  <inspiration_score>  (1189) 
None

>  <tags>  (1189) 
BulkDock Fragalysis export,fragmenstein_placed,openbind_a71ev2a_c1_knitwork_impure,openbind_a71ev2a_c1_scaffolds

>  <fragmenstein_outcome>  (1189) 
acceptable

>  <fragmenstein_error>  (1189) 


>  <distance_score>  (1189) 
0.813754

>  <inchikey>  (1189) 
FHBGUWZYHVFIEX-UHFFFAOYSA-N

>  <name>  (1189) 
C38598-P404

>  <HIPPO Pose ID>  (1189) 
487887

>  <Energy>  (1189) 
64.45093

>  <exports>  (1189) 
['/opt/xchem-fragalysis-2/maxwin/BulkDock/OUTPUTS/openbind_a71ev2a_c1_knitwork_impure_165VXJF.sdf', '/opt/xchem-fragalysis-2/maxwin/BulkDock/OUTPUTS/openbind_a71ev2a_c1_knitwork_impure_1B07QS4.sdf', '/opt/xchem-fragalysis-2/maxwin/BulkDock/OUTPUTS/openbind_a71ev2a_c1_knitwork_impure_1B07X5R.sdf', '/opt/xchem-fragalysis-2/maxwin/openbind-hippo/a71ev2a/openbind_a71ev2a_c1_scaffold_products.sdf', '/opt/xchem-fragalysis-2/maxwin/openbind-hippo/a71ev2a/cycle_01/bulkdock/openbind_a71ev2a_c1_scaffold_products.sdf', '/opt/xchem-fragalysis-2/maxwin/openbind-hippo/a71ev2a/cycle_01/bulkdock/openbind_a71ev2a_c1_scaffolds.sdf']

>  <fragmenstein_runtime>  (1189) 
1.735781

$$$$
C89701-P12
     RDKit          3D

 24 27  0  0  0  0  0  0  0  0999 V2000
   16.2931  -10.5557   16.7163 C   0  0  0  0  0  0  0  0  0  0  0  0
   16.1672   -9.2581   15.9389 C   0  0  0  0  0  0  0  0  0  0  0  0
   17.0419   -8.2249   16.4602 N   0  0  0  0  0  0  0  0  0  0  0  0
   16.5532   -7.3577   17.3636 N   0  0  0  0  0  0  0  0  0  0  0  0
   17.5834   -6.5499   17.6313 C   0  0  0  0  0  0  0  0  0  0  0  0
   17.3093   -5.4253   18.3536 N   0  0  0  0  0  0  0  0  0  0  0  0
   18.2747   -4.3945   19.0393 C   0  0  0  0  0  0  0  0  0  0  0  0
   19.4414   -4.4044   19.1489 O   0  0  0  0  0  0  0  0  0  0  0  0
   17.3610   -3.2576   19.4746 C   0  0  0  0  0  0  0  0  0  0  0  0
   17.9706   -2.2237   20.2834 N   0  0  0  0  0  0  0  0  0  0  0  0
   17.7161   -0.9255   19.9936 N   0  0  0  0  0  0  0  0  0  0  0  0
   18.2251   -0.1905   20.9738 N   0  0  0  0  0  0  0  0  0  0  0  0
   18.7139   -1.0383   21.9316 C   0  0  0  0  0  0  0  0  0  0  0  0
   19.2980   -0.7716   23.1780 C   0  0  0  0  0  0  0  0  0  0  0  0
   19.6474   -1.8540   23.9965 C   0  0  0  0  0  0  0  0  0  0  0  0
   19.4208   -3.1690   23.5821 C   0  0  0  0  0  0  0  0  0  0  0  0
   18.8540   -3.4516   22.3347 C   0  0  0  0  0  0  0  0  0  0  0  0
   18.5224   -2.3557   21.5321 C   0  0  0  0  0  0  0  0  0  0  0  0
   18.7534   -6.9229   16.9098 C   0  0  0  0  0  0  0  0  0  0  0  0
   20.0609   -6.4255   16.7392 C   0  0  0  0  0  0  0  0  0  0  0  0
   20.8890   -6.9685   15.7497 C   0  0  0  0  0  0  0  0  0  0  0  0
   20.4399   -8.0054   14.9384 C   0  0  0  0  0  0  0  0  0  0  0  0
   19.1583   -8.5375   15.0986 C   0  0  0  0  0  0  0  0  0  0  0  0
   18.3360   -7.9712   16.0853 C   0  0  0  0  0  0  0  0  0  0  0  0
  1  2  1  0
  2  3  1  0
  3  4  1  0
  4  5  2  0
  5  6  1  0
  6  7  1  0
  7  8  2  0
  7  9  1  0
  9 10  1  0
 10 11  1  0
 11 12  2  0
 12 13  1  0
 13 14  2  0
 14 15  1  0
 15 16  2  0
 16 17  1  0
 17 18  2  0
  5 19  1  0
 19 20  2  0
 20 21  1  0
 21 22  2  0
 22 23  1  0
 23 24  2  0
 24  3  1  0
 18 10  1  0
 24 19  1  0
 18 13  1  0
M  END
>  <ref_pdb>  (1190) 
A0497a

>  <subsites>  (1190) 
2 - A3977/A/202/1

>  <HIPPO Compound ID>  (1190) 
25770

>  <energy_score>  (1190) 
-31.50182

>  <fragmenstein_mode>  (1190) 
expansion

>  <scratch_subdir>  (1190) 
/opt/xchem-fragalysis-2/maxwin/BulkDock/SCRATCH/511211/C89701-P12

>  <smiles>  (1190) 
CCn1nc(NC(=O)Cn2nnc3ccccc32)c2ccccc21

>  <alias>  (1190) 
C89701-P12

>  <ref_mols>  (1190) 
A0497a,A1293a

>  <inspiration_score>  (1190) 
None

>  <tags>  (1190) 
BulkDock Fragalysis export,fragmenstein_placed,openbind_a71ev2a_c1_knitwork_impure,openbind_a71ev2a_c1_scaffolds

>  <fragmenstein_outcome>  (1190) 
acceptable

>  <fragmenstein_error>  (1190) 


>  <distance_score>  (1190) 
0.656275

>  <inchikey>  (1190) 
FMCDEJOHQRDQTM-UHFFFAOYSA-N

>  <name>  (1190) 
C89701-P12

>  <HIPPO Pose ID>  (1190) 
488155

>  <Energy>  (1190) 
33.43891

>  <exports>  (1190) 
['/opt/xchem-fragalysis-2/maxwin/BulkDock/OUTPUTS/openbind_a71ev2a_c1_knitwork_impure_165VXJF.sdf', '/opt/xchem-fragalysis-2/maxwin/BulkDock/OUTPUTS/openbind_a71ev2a_c1_knitwork_impure_1B07QS4.sdf', '/opt/xchem-fragalysis-2/maxwin/BulkDock/OUTPUTS/openbind_a71ev2a_c1_knitwork_impure_1B07X5R.sdf', '/opt/xchem-fragalysis-2/maxwin/openbind-hippo/a71ev2a/openbind_a71ev2a_c1_scaffold_products.sdf', '/opt/xchem-fragalysis-2/maxwin/openbind-hippo/a71ev2a/cycle_01/bulkdock/openbind_a71ev2a_c1_scaffold_products.sdf', '/opt/xchem-fragalysis-2/maxwin/openbind-hippo/a71ev2a/cycle_01/bulkdock/openbind_a71ev2a_c1_scaffolds.sdf']

>  <fragmenstein_runtime>  (1190) 
1.305771

$$$$
C89709-P12
     RDKit          3D

 22 25  0  0  0  0  0  0  0  0999 V2000
   20.6564   -5.0146   19.8365 O   0  0  0  0  0  0  0  0  0  0  0  0
   19.5527   -4.6518   19.9675 C   0  0  0  0  0  0  0  0  0  0  0  0
   18.2524   -5.1289   19.2797 N   0  0  0  0  0  0  0  0  0  0  0  0
   18.0595   -6.0397   18.2699 C   0  0  0  0  0  0  0  0  0  0  0  0
   16.8306   -6.5416   18.0845 N   0  0  0  0  0  0  0  0  0  0  0  0
   16.9556   -7.3487   17.0185 N   0  0  0  0  0  0  0  0  0  0  0  0
   18.2044   -7.3704   16.4665 C   0  0  0  0  0  0  0  0  0  0  0  0
   18.6992   -7.9952   15.3143 C   0  0  0  0  0  0  0  0  0  0  0  0
   20.0326   -7.7506   14.9924 C   0  0  0  0  0  0  0  0  0  0  0  0
   20.5449   -8.3096   13.8868 F   0  0  0  0  0  0  0  0  0  0  0  0
   20.8417   -6.9473   15.7845 C   0  0  0  0  0  0  0  0  0  0  0  0
   20.3273   -6.3476   16.9430 C   0  0  0  0  0  0  0  0  0  0  0  0
   18.9754   -6.5512   17.2938 C   0  0  0  0  0  0  0  0  0  0  0  0
   19.2318   -3.6186   21.0278 C   0  0  0  0  0  0  0  0  0  0  0  0
   19.8321   -3.7733   22.2348 C   0  0  0  0  0  0  0  0  0  0  0  0
   19.8071   -2.7342   23.2593 C   0  0  0  0  0  0  0  0  0  0  0  0
   19.2505   -1.5501   22.9588 C   0  0  0  0  0  0  0  0  0  0  0  0
   18.6316   -1.3994   21.7227 N   0  0  0  0  0  0  0  0  0  0  0  0
   18.0041   -0.3180   21.1751 C   0  0  0  0  0  0  0  0  0  0  0  0
   17.4286   -0.6604   20.0452 N   0  0  0  0  0  0  0  0  0  0  0  0
   17.7512   -1.9787   19.7922 N   0  0  0  0  0  0  0  0  0  0  0  0
   18.5215   -2.4083   20.7703 C   0  0  0  0  0  0  0  0  0  0  0  0
  1  2  2  0
  2  3  1  0
  3  4  1  0
  4  5  2  0
  5  6  1  0
  6  7  1  0
  7  8  2  0
  8  9  1  0
  9 10  1  0
  9 11  2  0
 11 12  1  0
 12 13  2  0
  2 14  1  0
 14 15  2  0
 15 16  1  0
 16 17  2  0
 17 18  1  0
 18 19  1  0
 19 20  2  0
 20 21  1  0
 21 22  2  0
 13  4  1  0
 22 14  1  0
 13  7  1  0
 22 18  1  0
M  END
>  <ref_pdb>  (1191) 
A0497a

>  <subsites>  (1191) 
2 - A3977/A/202/1

>  <HIPPO Compound ID>  (1191) 
89709

>  <energy_score>  (1191) 
-32.959286

>  <fragmenstein_mode>  (1191) 
expansion

>  <scratch_subdir>  (1191) 
/opt/xchem-fragalysis-2/maxwin/BulkDock/SCRATCH/511211/C89709-P12

>  <smiles>  (1191) 
O=C(Nc1n[nH]c2cc(F)ccc12)c1cccn2cnnc12

>  <alias>  (1191) 
C89709-P12

>  <ref_mols>  (1191) 
A0497a,A1293a

>  <inspiration_score>  (1191) 
None

>  <tags>  (1191) 
BulkDock Fragalysis export,fragmenstein_placed,openbind_a71ev2a_c1_knitwork_impure,openbind_a71ev2a_c1_scaffolds

>  <fragmenstein_outcome>  (1191) 
acceptable

>  <fragmenstein_error>  (1191) 


>  <distance_score>  (1191) 
0.965439

>  <inchikey>  (1191) 
XRENEVZHQOBHPU-UHFFFAOYSA-N

>  <name>  (1191) 
C89709-P12

>  <HIPPO Pose ID>  (1191) 
488163

>  <Energy>  (1191) 
30.180371

>  <exports>  (1191) 
['/opt/xchem-fragalysis-2/maxwin/BulkDock/OUTPUTS/openbind_a71ev2a_c1_knitwork_impure_165VXJF.sdf', '/opt/xchem-fragalysis-2/maxwin/BulkDock/OUTPUTS/openbind_a71ev2a_c1_knitwork_impure_1B07QS4.sdf', '/opt/xchem-fragalysis-2/maxwin/BulkDock/OUTPUTS/openbind_a71ev2a_c1_knitwork_impure_1B07X5R.sdf', '/opt/xchem-fragalysis-2/maxwin/openbind-hippo/a71ev2a/openbind_a71ev2a_c1_scaffold_products.sdf', '/opt/xchem-fragalysis-2/maxwin/openbind-hippo/a71ev2a/cycle_01/bulkdock/openbind_a71ev2a_c1_scaffold_products.sdf', '/opt/xchem-fragalysis-2/maxwin/openbind-hippo/a71ev2a/cycle_01/bulkdock/openbind_a71ev2a_c1_scaffolds.sdf']

>  <fragmenstein_runtime>  (1191) 
1.087545

$$$$
C89730-P12
     RDKit          3D

 22 25  0  0  0  0  0  0  0  0999 V2000
   15.7916   -8.1283   16.5982 C   0  0  0  0  0  0  0  0  0  0  0  0
   16.9538   -7.3921   17.0329 N   0  0  0  0  0  0  0  0  0  0  0  0
   16.8381   -6.5694   18.0918 N   0  0  0  0  0  0  0  0  0  0  0  0
   18.0666   -6.0627   18.2605 C   0  0  0  0  0  0  0  0  0  0  0  0
   18.2551   -5.1517   19.2731 N   0  0  0  0  0  0  0  0  0  0  0  0
   19.5577   -4.5888   19.8890 C   0  0  0  0  0  0  0  0  0  0  0  0
   20.6746   -4.8680   19.6854 O   0  0  0  0  0  0  0  0  0  0  0  0
   19.2242   -3.5975   20.9809 C   0  0  0  0  0  0  0  0  0  0  0  0
   19.8240   -3.7814   22.1835 C   0  0  0  0  0  0  0  0  0  0  0  0
   19.7966   -2.7656   23.2316 C   0  0  0  0  0  0  0  0  0  0  0  0
   19.2435   -1.5735   22.9559 C   0  0  0  0  0  0  0  0  0  0  0  0
   18.6272   -1.3942   21.7220 N   0  0  0  0  0  0  0  0  0  0  0  0
   18.0037   -0.3002   21.1952 C   0  0  0  0  0  0  0  0  0  0  0  0
   17.4279   -0.6185   20.0583 N   0  0  0  0  0  0  0  0  0  0  0  0
   17.7471   -1.9318   19.7790 N   0  0  0  0  0  0  0  0  0  0  0  0
   18.5158   -2.3821   20.7489 C   0  0  0  0  0  0  0  0  0  0  0  0
   18.9726   -6.5773   17.2776 C   0  0  0  0  0  0  0  0  0  0  0  0
   20.3195   -6.3718   16.9139 C   0  0  0  0  0  0  0  0  0  0  0  0
   20.8371   -6.9863   15.7656 C   0  0  0  0  0  0  0  0  0  0  0  0
   20.0413   -7.8157   14.9818 C   0  0  0  0  0  0  0  0  0  0  0  0
   18.7078   -8.0552   15.3220 C   0  0  0  0  0  0  0  0  0  0  0  0
   18.2002   -7.4136   16.4656 C   0  0  0  0  0  0  0  0  0  0  0  0
  1  2  1  0
  2  3  1  0
  3  4  2  0
  4  5  1  0
  5  6  1  0
  6  7  2  0
  6  8  1  0
  8  9  2  0
  9 10  1  0
 10 11  2  0
 11 12  1  0
 12 13  1  0
 13 14  2  0
 14 15  1  0
 15 16  2  0
  4 17  1  0
 17 18  2  0
 18 19  1  0
 19 20  2  0
 20 21  1  0
 21 22  2  0
 22  2  1  0
 16  8  1  0
 22 17  1  0
 16 12  1  0
M  END
>  <ref_pdb>  (1192) 
A0497a

>  <subsites>  (1192) 
2 - A3977/A/202/1

>  <HIPPO Compound ID>  (1192) 
15998

>  <energy_score>  (1192) 
-40.928021

>  <fragmenstein_mode>  (1192) 
expansion

>  <scratch_subdir>  (1192) 
/opt/xchem-fragalysis-2/maxwin/BulkDock/SCRATCH/511211/C89730-P12

>  <smiles>  (1192) 
Cn1nc(NC(=O)c2cccn3cnnc23)c2ccccc21

>  <alias>  (1192) 
C89730-P12

>  <ref_mols>  (1192) 
A0497a,A1293a

>  <inspiration_score>  (1192) 
None

>  <tags>  (1192) 
BulkDock Fragalysis export,fragmenstein_placed,openbind_a71ev2a_c1_knitwork_impure,openbind_a71ev2a_c1_scaffolds

>  <fragmenstein_outcome>  (1192) 
acceptable

>  <fragmenstein_error>  (1192) 


>  <distance_score>  (1192) 
0.969433

>  <inchikey>  (1192) 
TUCJJOTTXFGEGV-UHFFFAOYSA-N

>  <name>  (1192) 
C89730-P12

>  <HIPPO Pose ID>  (1192) 
488185

>  <Energy>  (1192) 
37.994464

>  <exports>  (1192) 
['/opt/xchem-fragalysis-2/maxwin/BulkDock/OUTPUTS/openbind_a71ev2a_c1_knitwork_impure_165VXJF.sdf', '/opt/xchem-fragalysis-2/maxwin/BulkDock/OUTPUTS/openbind_a71ev2a_c1_knitwork_impure_1B07QS4.sdf', '/opt/xchem-fragalysis-2/maxwin/BulkDock/OUTPUTS/openbind_a71ev2a_c1_knitwork_impure_1B07X5R.sdf', '/opt/xchem-fragalysis-2/maxwin/openbind-hippo/a71ev2a/openbind_a71ev2a_c1_scaffold_products.sdf', '/opt/xchem-fragalysis-2/maxwin/openbind-hippo/a71ev2a/cycle_01/bulkdock/openbind_a71ev2a_c1_scaffold_products.sdf', '/opt/xchem-fragalysis-2/maxwin/openbind-hippo/a71ev2a/cycle_01/bulkdock/openbind_a71ev2a_c1_scaffolds.sdf']

>  <fragmenstein_runtime>  (1192) 
1.056923

$$$$
C89732-P12
     RDKit          3D

 22 25  0  0  0  0  0  0  0  0999 V2000
   20.6508   -4.9504   19.7750 O   0  0  0  0  0  0  0  0  0  0  0  0
   19.5404   -4.6164   19.9240 C   0  0  0  0  0  0  0  0  0  0  0  0
   18.2526   -5.0623   19.1930 N   0  0  0  0  0  0  0  0  0  0  0  0
   18.0580   -6.0319   18.2395 C   0  0  0  0  0  0  0  0  0  0  0  0
   16.8350   -6.5576   18.0854 N   0  0  0  0  0  0  0  0  0  0  0  0
   16.9616   -7.3898   17.0368 N   0  0  0  0  0  0  0  0  0  0  0  0
   18.2047   -7.4077   16.4722 C   0  0  0  0  0  0  0  0  0  0  0  0
   18.6955   -8.0500   15.3277 C   0  0  0  0  0  0  0  0  0  0  0  0
   20.0198   -7.7906   14.9808 C   0  0  0  0  0  0  0  0  0  0  0  0
   20.4975   -8.3872   13.8483 O   0  0  0  0  0  0  0  0  0  0  0  0
   20.8275   -6.9578   15.7471 C   0  0  0  0  0  0  0  0  0  0  0  0
   20.3151   -6.3437   16.8996 C   0  0  0  0  0  0  0  0  0  0  0  0
   18.9719   -6.5604   17.2714 C   0  0  0  0  0  0  0  0  0  0  0  0
   19.2031   -3.6203   21.0135 C   0  0  0  0  0  0  0  0  0  0  0  0
   19.7938   -3.8034   22.2209 C   0  0  0  0  0  0  0  0  0  0  0  0
   19.7691   -2.7831   23.2647 C   0  0  0  0  0  0  0  0  0  0  0  0
   19.2292   -1.5870   22.9809 C   0  0  0  0  0  0  0  0  0  0  0  0
   18.6224   -1.4065   21.7427 N   0  0  0  0  0  0  0  0  0  0  0  0
   18.0125   -0.3082   21.2083 C   0  0  0  0  0  0  0  0  0  0  0  0
   17.4449   -0.6235   20.0666 N   0  0  0  0  0  0  0  0  0  0  0  0
   17.7544   -1.9404   19.7938 N   0  0  0  0  0  0  0  0  0  0  0  0
   18.5084   -2.3971   20.7724 C   0  0  0  0  0  0  0  0  0  0  0  0
  1  2  2  0
  2  3  1  0
  3  4  1  0
  4  5  2  0
  5  6  1  0
  6  7  1  0
  7  8  2  0
  8  9  1  0
  9 10  1  0
  9 11  2  0
 11 12  1  0
 12 13  2  0
  2 14  1  0
 14 15  2  0
 15 16  1  0
 16 17  2  0
 17 18  1  0
 18 19  1  0
 19 20  2  0
 20 21  1  0
 21 22  2  0
 13  4  1  0
 22 14  1  0
 13  7  1  0
 22 18  1  0
M  END
>  <ref_pdb>  (1193) 
A0497a

>  <subsites>  (1193) 
2 - A3977/A/202/1

>  <HIPPO Compound ID>  (1193) 
2060

>  <energy_score>  (1193) 
-45.241538

>  <fragmenstein_mode>  (1193) 
expansion

>  <scratch_subdir>  (1193) 
/opt/xchem-fragalysis-2/maxwin/BulkDock/SCRATCH/511211/C89732-P12

>  <smiles>  (1193) 
O=C(Nc1n[nH]c2cc(O)ccc12)c1cccn2cnnc12

>  <alias>  (1193) 
C89732-P12

>  <ref_mols>  (1193) 
A0497a,A1293a

>  <inspiration_score>  (1193) 
None

>  <tags>  (1193) 
BulkDock Fragalysis export,fragmenstein_placed,openbind_a71ev2a_c1_knitwork_impure,openbind_a71ev2a_c1_scaffolds

>  <fragmenstein_outcome>  (1193) 
acceptable

>  <fragmenstein_error>  (1193) 


>  <distance_score>  (1193) 
0.96376

>  <inchikey>  (1193) 
BZGNUPUTGOBVRA-UHFFFAOYSA-N

>  <name>  (1193) 
C89732-P12

>  <HIPPO Pose ID>  (1193) 
488186

>  <Energy>  (1193) 
22.153558

>  <exports>  (1193) 
['/opt/xchem-fragalysis-2/maxwin/BulkDock/OUTPUTS/openbind_a71ev2a_c1_knitwork_impure_165VXJF.sdf', '/opt/xchem-fragalysis-2/maxwin/BulkDock/OUTPUTS/openbind_a71ev2a_c1_knitwork_impure_1B07QS4.sdf', '/opt/xchem-fragalysis-2/maxwin/BulkDock/OUTPUTS/openbind_a71ev2a_c1_knitwork_impure_1B07X5R.sdf', '/opt/xchem-fragalysis-2/maxwin/openbind-hippo/a71ev2a/openbind_a71ev2a_c1_scaffold_products.sdf', '/opt/xchem-fragalysis-2/maxwin/openbind-hippo/a71ev2a/cycle_01/bulkdock/openbind_a71ev2a_c1_scaffold_products.sdf', '/opt/xchem-fragalysis-2/maxwin/openbind-hippo/a71ev2a/cycle_01/bulkdock/openbind_a71ev2a_c1_scaffolds.sdf']

>  <fragmenstein_runtime>  (1193) 
0.952982

$$$$
C2408-P324
     RDKit          3D

 15 15  0  0  0  0  0  0  0  0999 V2000
    9.0510    9.8584   23.8475 C   0  0  0  0  0  0  0  0  0  0  0  0
    9.1344   11.3750   23.7458 C   0  0  0  0  0  0  0  0  0  0  0  0
    8.6036   12.1221   24.9573 C   0  0  2  0  0  0  0  0  0  0  0  0
    7.1740   11.8055   25.3616 C   0  0  0  0  0  0  0  0  0  0  0  0
    8.8657   13.6286   24.9845 C   0  0  0  0  0  0  0  0  0  0  0  0
    9.3469   14.0796   26.0386 O   0  0  0  0  0  0  0  0  0  0  0  0
    8.5314   14.5936   23.7901 C   0  0  0  0  0  0  0  0  0  0  0  0
    7.2795   14.1411   23.0202 C   0  0  0  0  0  0  0  0  0  0  0  0
    8.1486   15.9606   24.4283 C   0  0  0  0  0  0  0  0  0  0  0  0
    9.7213   14.6826   22.8851 N   0  0  0  0  0  0  0  0  0  0  0  0
   10.9296   15.1804   23.5713 C   0  0  0  0  0  0  0  0  0  0  0  0
   12.1507   15.1093   22.6643 C   0  0  0  0  0  0  0  0  0  0  0  0
   11.9516   15.9378   21.4080 C   0  0  0  0  0  0  0  0  0  0  0  0
   10.6801   15.4951   20.7064 C   0  0  0  0  0  0  0  0  0  0  0  0
    9.4826   15.4852   21.6605 C   0  0  0  0  0  0  0  0  0  0  0  0
  1  2  1  0
  2  3  1  0
  3  4  1  6
  3  5  1  0
  5  6  2  0
  5  7  1  0
  7  8  1  0
  7  9  1  0
  7 10  1  0
 10 11  1  0
 11 12  1  0
 12 13  1  0
 13 14  1  0
 14 15  1  0
 15 10  1  0
M  END
>  <ref_pdb>  (1194) 
A4365b

>  <subsites>  (1194) 
1 - Active Site

>  <HIPPO Compound ID>  (1194) 
3768

>  <energy_score>  (1194) 
-46.07398

>  <fragmenstein_mode>  (1194) 
expansion

>  <scratch_subdir>  (1194) 
/opt/xchem-fragalysis-2/maxwin/BulkDock/SCRATCH/511211/C2408-P324

>  <smiles>  (1194) 
CC[C@H](C)C(=O)C(C)(C)N1CCCCC1

>  <alias>  (1194) 
C2408-P324

>  <ref_mols>  (1194) 
A4365b,A1779a

>  <inspiration_score>  (1194) 
None

>  <tags>  (1194) 
BulkDock Fragalysis export,fragmenstein_placed,openbind_a71ev2a_c1_knitwork_impure,openbind_a71ev2a_c1_scaffolds

>  <fragmenstein_outcome>  (1194) 
acceptable

>  <fragmenstein_error>  (1194) 


>  <distance_score>  (1194) 
0.977978

>  <inchikey>  (1194) 
AHFGKFFBSVWUBY-UHFFFAOYSA-N

>  <name>  (1194) 
C2408-P324

>  <HIPPO Pose ID>  (1194) 
488231

>  <Energy>  (1194) 
54.78263

>  <exports>  (1194) 
['/opt/xchem-fragalysis-2/maxwin/BulkDock/OUTPUTS/openbind_a71ev2a_c1_knitwork_impure_165VXJF.sdf', '/opt/xchem-fragalysis-2/maxwin/BulkDock/OUTPUTS/openbind_a71ev2a_c1_knitwork_impure_1B07QS4.sdf', '/opt/xchem-fragalysis-2/maxwin/BulkDock/OUTPUTS/openbind_a71ev2a_c1_knitwork_impure_1B07X5R.sdf', '/opt/xchem-fragalysis-2/maxwin/openbind-hippo/a71ev2a/openbind_a71ev2a_c1_scaffold_products.sdf', '/opt/xchem-fragalysis-2/maxwin/openbind-hippo/a71ev2a/cycle_01/bulkdock/openbind_a71ev2a_c1_scaffold_products.sdf', '/opt/xchem-fragalysis-2/maxwin/openbind-hippo/a71ev2a/cycle_01/bulkdock/openbind_a71ev2a_c1_scaffolds.sdf']

>  <fragmenstein_runtime>  (1194) 
9.370775

$$$$
C18997-P51
     RDKit          3D

 19 20  0  0  0  0  0  0  0  0999 V2000
   17.2681   17.1236    1.9160 C   0  0  0  0  0  0  0  0  0  0  0  0
   18.6278   16.5804    2.2358 C   0  0  0  0  0  0  0  0  0  0  0  0
   19.7376   17.7752    2.8124 Cl  0  0  0  0  0  0  0  0  0  0  0  0
   18.9356   15.2834    2.0970 C   0  0  0  0  0  0  0  0  0  0  0  0
   20.2085   14.5747    2.4105 C   0  0  0  0  0  0  0  0  0  0  0  0
   20.1707   13.5346    2.9337 O   0  0  0  0  0  0  0  0  0  0  0  0
   21.4028   15.3697    1.8576 N   0  0  0  0  0  0  0  0  0  0  0  0
   22.8370   15.0930    1.9165 C   0  0  0  0  0  0  0  0  0  0  0  0
   23.6163   16.3130    1.3861 C   0  0  0  0  0  0  0  0  0  0  0  0
   23.2309   14.8722    3.3656 C   0  0  0  0  0  0  0  0  0  0  0  0
   23.0970   13.9289    0.9960 C   0  0  0  0  0  0  0  0  0  0  0  0
   22.4252   13.7169   -0.1265 N   0  0  0  0  0  0  0  0  0  0  0  0
   23.0897   12.7812   -0.8700 N   0  0  0  0  0  0  0  0  0  0  0  0
   24.1537   12.4220   -0.1928 C   0  0  0  0  0  0  0  0  0  0  0  0
   24.1395   13.0327    1.0361 N   0  0  0  0  0  0  0  0  0  0  0  0
   25.1848   12.8615    2.0225 C   0  0  0  0  0  0  0  0  0  0  0  0
   26.1975   11.7686    1.6731 C   0  0  0  0  0  0  0  0  0  0  0  0
   26.5226   11.7698    0.1820 C   0  0  0  0  0  0  0  0  0  0  0  0
   25.2582   11.5427   -0.6454 C   0  0  0  0  0  0  0  0  0  0  0  0
  1  2  1  0
  2  3  1  0
  2  4  2  3
  4  5  1  0
  5  6  2  0
  5  7  1  0
  7  8  1  0
  8  9  1  0
  8 10  1  0
  8 11  1  0
 11 12  2  0
 12 13  1  0
 13 14  2  0
 14 15  1  0
 15 16  1  0
 16 17  1  0
 17 18  1  0
 18 19  1  0
 15 11  1  0
 19 14  1  0
M  END
>  <ref_pdb>  (1195) 
A0239a

>  <subsites>  (1195) 
6 - A0486/A/147/1

>  <HIPPO Compound ID>  (1195) 
10335

>  <energy_score>  (1195) 
-44.224562

>  <fragmenstein_mode>  (1195) 
expansion

>  <scratch_subdir>  (1195) 
/opt/xchem-fragalysis-2/maxwin/BulkDock/SCRATCH/511211/C18997-P51

>  <smiles>  (1195) 
CC(Cl)=CC(=O)NC(C)(C)c1nnc2n1CCCC2

>  <alias>  (1195) 
C18997-P51

>  <ref_mols>  (1195) 
A0239a,A0608a

>  <inspiration_score>  (1195) 
None

>  <tags>  (1195) 
BulkDock Fragalysis export,fragmenstein_placed,openbind_a71ev2a_c1_knitwork_impure,openbind_a71ev2a_c1_scaffolds

>  <fragmenstein_outcome>  (1195) 
acceptable

>  <fragmenstein_error>  (1195) 


>  <distance_score>  (1195) 
0.967266

>  <inchikey>  (1195) 
OTLOOYMQZJZQNU-UHFFFAOYSA-N

>  <name>  (1195) 
C18997-P51

>  <HIPPO Pose ID>  (1195) 
488348

>  <Energy>  (1195) 
-7.465411

>  <exports>  (1195) 
['/opt/xchem-fragalysis-2/maxwin/BulkDock/OUTPUTS/openbind_a71ev2a_c1_knitwork_impure_165VXJF.sdf', '/opt/xchem-fragalysis-2/maxwin/BulkDock/OUTPUTS/openbind_a71ev2a_c1_knitwork_impure_1B07QS4.sdf', '/opt/xchem-fragalysis-2/maxwin/BulkDock/OUTPUTS/openbind_a71ev2a_c1_knitwork_impure_1B07X5R.sdf', '/opt/xchem-fragalysis-2/maxwin/openbind-hippo/a71ev2a/openbind_a71ev2a_c1_scaffold_products.sdf', '/opt/xchem-fragalysis-2/maxwin/openbind-hippo/a71ev2a/cycle_01/bulkdock/openbind_a71ev2a_c1_scaffold_products.sdf', '/opt/xchem-fragalysis-2/maxwin/openbind-hippo/a71ev2a/cycle_01/bulkdock/openbind_a71ev2a_c1_scaffolds.sdf']

>  <fragmenstein_runtime>  (1195) 
1.224071

$$$$
C7181-P440
     RDKit          3D

 21 22  0  0  0  0  0  0  0  0999 V2000
    3.4576   12.6048   30.0723 C   0  0  0  0  0  0  0  0  0  0  0  0
    3.4436   11.1141   29.7397 C   0  0  2  0  0  0  0  0  0  0  0  0
    4.0797   10.7417   28.3904 C   0  0  0  0  0  0  0  0  0  0  0  0
    5.3630   11.4571   27.9500 C   0  0  0  0  0  0  0  0  0  0  0  0
    5.7081   12.4937   28.3610 O   0  0  0  0  0  0  0  0  0  0  0  0
    5.9696   10.5645   26.8282 N   0  0  0  0  0  0  0  0  0  0  0  0
    7.0047   10.7993   25.9741 C   0  0  0  0  0  0  0  0  0  0  0  0
    7.5797    9.8092   25.1533 C   0  0  0  0  0  0  0  0  0  0  0  0
    8.4468   10.4732   24.3255 C   0  0  0  0  0  0  0  0  0  0  0  0
    8.3283   11.7901   24.6615 N   0  0  0  0  0  0  0  0  0  0  0  0
    8.9299   12.8966   23.9326 C   0  0  0  0  0  0  0  0  0  0  0  0
   10.2219   13.3791   24.6015 C   0  0  0  0  0  0  0  0  0  0  0  0
   10.6795   14.7478   24.0935 C   0  0  0  0  0  0  0  0  0  0  0  0
   10.1052   15.0972   22.7260 C   0  0  0  0  0  0  0  0  0  0  0  0
    8.5747   15.0822   22.7193 C   0  0  0  0  0  0  0  0  0  0  0  0
    7.9653   14.0570   23.6784 C   0  0  0  0  0  0  0  0  0  0  0  0
    7.5483   11.9931   25.7435 N   0  0  0  0  0  0  0  0  0  0  0  0
    1.9937   10.6340   29.7432 C   0  0  0  0  0  0  0  0  0  0  0  0
    1.4412   10.7345   30.9678 F   0  0  0  0  0  0  0  0  0  0  0  0
    1.9105    9.3393   29.3547 F   0  0  0  0  0  0  0  0  0  0  0  0
    1.2485   11.3522   28.8764 F   0  0  0  0  0  0  0  0  0  0  0  0
  2  1  1  6
  2  3  1  0
  3  4  1  0
  4  5  2  0
  4  6  1  0
  6  7  1  0
  7  8  1  0
  8  9  2  0
  9 10  1  0
 10 11  1  0
 11 12  1  0
 12 13  1  0
 13 14  1  0
 14 15  1  0
 15 16  1  0
 10 17  1  0
  2 18  1  0
 18 19  1  0
 18 20  1  0
 18 21  1  0
 17  7  2  0
 16 11  1  0
M  END
>  <ref_pdb>  (1196) 
A4707a

>  <subsites>  (1196) 
1 - Active Site

>  <HIPPO Compound ID>  (1196) 
7181

>  <energy_score>  (1196) 
-22.641955

>  <fragmenstein_mode>  (1196) 
expansion

>  <scratch_subdir>  (1196) 
/opt/xchem-fragalysis-2/maxwin/BulkDock/SCRATCH/511211/C7181-P440

>  <smiles>  (1196) 
C[C@H](CC(=O)Nc1ccn(C2CCCCC2)n1)C(F)(F)F

>  <alias>  (1196) 
C7181-P440

>  <ref_mols>  (1196) 
A1445a,A4707a

>  <inspiration_score>  (1196) 
None

>  <tags>  (1196) 
BulkDock Fragalysis export,fragmenstein_placed,openbind_a71ev2a_c1_knitwork_impure,openbind_a71ev2a_c1_scaffolds

>  <fragmenstein_outcome>  (1196) 
acceptable

>  <fragmenstein_error>  (1196) 


>  <distance_score>  (1196) 
0.849137

>  <inchikey>  (1196) 
YQLHABXLGQDQAK-UHFFFAOYSA-N

>  <name>  (1196) 
C7181-P440

>  <HIPPO Pose ID>  (1196) 
488663

>  <Energy>  (1196) 
-9.398776

>  <exports>  (1196) 
['/opt/xchem-fragalysis-2/maxwin/BulkDock/OUTPUTS/openbind_a71ev2a_c1_knitwork_impure_165VXJF.sdf', '/opt/xchem-fragalysis-2/maxwin/BulkDock/OUTPUTS/openbind_a71ev2a_c1_knitwork_impure_1B07QS4.sdf', '/opt/xchem-fragalysis-2/maxwin/BulkDock/OUTPUTS/openbind_a71ev2a_c1_knitwork_impure_1B07X5R.sdf', '/opt/xchem-fragalysis-2/maxwin/openbind-hippo/a71ev2a/openbind_a71ev2a_c1_scaffold_products.sdf', '/opt/xchem-fragalysis-2/maxwin/openbind-hippo/a71ev2a/cycle_01/bulkdock/openbind_a71ev2a_c1_scaffold_products.sdf', '/opt/xchem-fragalysis-2/maxwin/openbind-hippo/a71ev2a/cycle_01/bulkdock/openbind_a71ev2a_c1_scaffolds.sdf']

>  <fragmenstein_runtime>  (1196) 
14.494227

$$$$
C4728-P276
     RDKit          3D

  9  9  0  0  0  0  0  0  0  0999 V2000
    7.6526   11.0089   25.6951 O   0  0  0  0  0  0  0  0  0  0  0  0
    7.4736   12.0376   25.0501 C   0  0  0  0  0  0  0  0  0  0  0  0
    8.5033   13.1262   24.9257 C   0  0  0  0  0  0  0  0  0  0  0  0
    8.7104   13.4766   23.4572 C   0  0  0  0  0  0  0  0  0  0  0  0
    9.5526   14.6572   23.3062 N   0  0  0  0  0  0  0  0  0  0  0  0
   10.9623   14.4460   23.6928 C   0  0  0  0  0  0  0  0  0  0  0  0
   11.7322   15.2927   22.7454 C   0  0  0  0  0  0  0  0  0  0  0  0
   10.9476   15.7076   21.7497 C   0  0  0  0  0  0  0  0  0  0  0  0
    9.5716   15.1751   21.9212 C   0  0  0  0  0  0  0  0  0  0  0  0
  1  2  2  0
  2  3  1  0
  3  4  1  0
  4  5  1  0
  5  6  1  0
  6  7  1  0
  7  8  2  0
  8  9  1  0
  9  5  1  0
M  END
>  <ref_pdb>  (1197) 
A4032a

>  <subsites>  (1197) 
1 - Active Site

>  <HIPPO Compound ID>  (1197) 
8160

>  <energy_score>  (1197) 
-12.79745

>  <fragmenstein_mode>  (1197) 
expansion

>  <scratch_subdir>  (1197) 
/opt/xchem-fragalysis-2/maxwin/BulkDock/SCRATCH/511211/C4728-P276

>  <smiles>  (1197) 
O=CCCN1CC=CC1

>  <alias>  (1197) 
C4728-P276

>  <ref_mols>  (1197) 
A1775a,A4032a

>  <inspiration_score>  (1197) 
None

>  <tags>  (1197) 
BulkDock Fragalysis export,fragmenstein_placed,openbind_a71ev2a_c1_knitwork_impure,openbind_a71ev2a_c1_scaffolds

>  <fragmenstein_outcome>  (1197) 
acceptable

>  <fragmenstein_error>  (1197) 


>  <distance_score>  (1197) 
0.763364

>  <inchikey>  (1197) 
NPUASWGUMOGUOD-UHFFFAOYSA-N

>  <name>  (1197) 
C4728-P276

>  <HIPPO Pose ID>  (1197) 
488695

>  <Energy>  (1197) 
-1.626685

>  <exports>  (1197) 
['/opt/xchem-fragalysis-2/maxwin/BulkDock/OUTPUTS/openbind_a71ev2a_c1_knitwork_impure_165VXJF.sdf', '/opt/xchem-fragalysis-2/maxwin/BulkDock/OUTPUTS/openbind_a71ev2a_c1_knitwork_impure_1B07QS4.sdf', '/opt/xchem-fragalysis-2/maxwin/BulkDock/OUTPUTS/openbind_a71ev2a_c1_knitwork_impure_1B07X5R.sdf', '/opt/xchem-fragalysis-2/maxwin/openbind-hippo/a71ev2a/openbind_a71ev2a_c1_scaffold_products.sdf', '/opt/xchem-fragalysis-2/maxwin/openbind-hippo/a71ev2a/cycle_01/bulkdock/openbind_a71ev2a_c1_scaffold_products.sdf', '/opt/xchem-fragalysis-2/maxwin/openbind-hippo/a71ev2a/cycle_01/bulkdock/openbind_a71ev2a_c1_scaffolds.sdf']

>  <fragmenstein_runtime>  (1197) 
0.92902

$$$$
C25758-P259
     RDKit          3D

 13 13  0  0  0  0  0  0  0  0999 V2000
    8.4573    9.1460   24.0753 C   0  0  0  0  0  0  0  0  0  0  0  0
    8.5107   10.6232   24.3388 C   0  0  0  0  0  0  0  0  0  0  0  0
    9.7059   11.2420   23.7087 C   0  0  0  0  0  0  0  0  0  0  0  0
    7.5630   11.2101   25.0877 C   0  0  0  0  0  0  0  0  0  0  0  0
    7.3511   12.6268   25.4968 C   0  0  0  0  0  0  0  0  0  0  0  0
    6.5104   12.8145   26.3819 O   0  0  0  0  0  0  0  0  0  0  0  0
    8.1630   13.7721   24.9195 C   0  0  0  0  0  0  0  0  0  0  0  0
    7.9605   13.9934   23.4188 C   0  0  0  0  0  0  0  0  0  0  0  0
    8.9280   14.9481   22.8669 N   0  0  0  0  0  0  0  0  0  0  0  0
    8.5544   15.4018   21.5209 C   0  0  0  0  0  0  0  0  0  0  0  0
    9.8266   16.0208   20.9538 C   0  0  0  0  0  0  0  0  0  0  0  0
   10.9511   15.5138   21.8444 C   0  0  0  0  0  0  0  0  0  0  0  0
   10.2966   14.4527   22.7112 C   0  0  0  0  0  0  0  0  0  0  0  0
  1  2  1  0
  2  3  1  0
  2  4  2  3
  4  5  1  0
  5  6  2  0
  5  7  1  0
  7  8  1  0
  8  9  1  0
  9 10  1  0
 10 11  1  0
 11 12  1  0
 12 13  1  0
 13  9  1  0
M  END
>  <ref_pdb>  (1198) 
A3990a

>  <subsites>  (1198) 
1 - Active Site

>  <HIPPO Compound ID>  (1198) 
9219

>  <energy_score>  (1198) 
-28.720853

>  <fragmenstein_mode>  (1198) 
expansion

>  <scratch_subdir>  (1198) 
/opt/xchem-fragalysis-2/maxwin/BulkDock/SCRATCH/511212/C25758-P259

>  <smiles>  (1198) 
CC(C)=CC(=O)CCN1CCCC1

>  <alias>  (1198) 
C25758-P259

>  <ref_mols>  (1198) 
A1775a,A3990a

>  <inspiration_score>  (1198) 
None

>  <tags>  (1198) 
BulkDock Fragalysis export,fragmenstein_placed,openbind_a71ev2a_c1_knitwork_impure,openbind_a71ev2a_c1_scaffolds

>  <fragmenstein_outcome>  (1198) 
acceptable

>  <fragmenstein_error>  (1198) 


>  <distance_score>  (1198) 
0.904892

>  <inchikey>  (1198) 
ZIEANTSEZNDOIT-UHFFFAOYSA-N

>  <name>  (1198) 
C25758-P259

>  <HIPPO Pose ID>  (1198) 
489250

>  <Energy>  (1198) 
29.468072

>  <exports>  (1198) 
['/opt/xchem-fragalysis-2/maxwin/BulkDock/OUTPUTS/openbind_a71ev2a_c1_knitwork_impure_165VXJF.sdf', '/opt/xchem-fragalysis-2/maxwin/BulkDock/OUTPUTS/openbind_a71ev2a_c1_knitwork_impure_1B07QS4.sdf', '/opt/xchem-fragalysis-2/maxwin/BulkDock/OUTPUTS/openbind_a71ev2a_c1_knitwork_impure_1B07X5R.sdf', '/opt/xchem-fragalysis-2/maxwin/openbind-hippo/a71ev2a/openbind_a71ev2a_c1_scaffold_products.sdf', '/opt/xchem-fragalysis-2/maxwin/openbind-hippo/a71ev2a/cycle_01/bulkdock/openbind_a71ev2a_c1_scaffold_products.sdf', '/opt/xchem-fragalysis-2/maxwin/openbind-hippo/a71ev2a/cycle_01/bulkdock/openbind_a71ev2a_c1_scaffolds.sdf']

>  <fragmenstein_runtime>  (1198) 
2.601719

$$$$
C20430-P22
     RDKit          3D

 21 23  0  0  0  0  0  0  0  0999 V2000
   21.0605   15.1365    1.4422 C   0  0  0  0  0  0  0  0  0  0  0  0
   22.2218   14.2718    1.9798 C   0  0  0  0  0  0  0  0  0  0  0  0
   23.2273   15.2343    2.6197 C   0  0  0  0  0  0  0  0  0  0  0  0
   21.5950   13.2570    2.9324 C   0  0  0  0  0  0  0  0  0  0  0  0
   22.8620   13.4959    0.8608 C   0  0  0  0  0  0  0  0  0  0  0  0
   22.3398   13.3699   -0.3444 N   0  0  0  0  0  0  0  0  0  0  0  0
   23.1494   12.5640   -1.0923 N   0  0  0  0  0  0  0  0  0  0  0  0
   24.1574   12.2022   -0.3367 C   0  0  0  0  0  0  0  0  0  0  0  0
   24.0132   12.7444    0.9120 N   0  0  0  0  0  0  0  0  0  0  0  0
   25.0101   12.6206    1.9594 C   0  0  0  0  0  0  0  0  0  0  0  0
   26.1321   11.5964    1.6547 C   0  0  2  0  0  0  0  0  0  0  0  0
   27.3469   11.8868    2.5548 C   0  0  0  0  0  0  0  0  0  0  0  0
   27.4196   12.8574    3.2005 O   0  0  0  0  0  0  0  0  0  0  0  0
   28.3658   10.7262    2.3614 N   0  0  0  0  0  0  0  0  0  0  0  0
   29.6561   10.4773    3.0064 C   0  0  2  0  0  0  0  0  0  0  0  0
   30.3033   11.6864    3.7511 C   0  0  0  0  0  0  0  0  0  0  0  0
   31.6844   11.3551    3.1390 C   0  0  0  0  0  0  0  0  0  0  0  0
   30.9183   10.5412    2.0767 C   0  0  0  0  0  0  0  0  0  0  0  0
   31.2112   10.1466    0.9679 O   0  0  0  0  0  0  0  0  0  0  0  0
   26.5178   11.6677    0.1673 C   0  0  0  0  0  0  0  0  0  0  0  0
   25.3094   11.3552   -0.7107 C   0  0  0  0  0  0  0  0  0  0  0  0
  1  2  1  0
  2  3  1  0
  2  4  1  0
  2  5  1  0
  5  6  2  0
  6  7  1  0
  7  8  2  0
  8  9  1  0
  9 10  1  0
 10 11  1  0
 11 12  1  1
 12 13  2  0
 12 14  1  0
 15 14  1  6
 15 16  1  0
 16 17  1  0
 17 18  1  0
 18 19  2  0
 11 20  1  0
 20 21  1  0
  9  5  1  0
 18 15  1  0
 21  8  1  0
M  END
>  <ref_pdb>  (1199) 
A0528a

>  <subsites>  (1199) 
1 - Active Site,6 - A0486/A/147/1

>  <HIPPO Compound ID>  (1199) 
7420

>  <energy_score>  (1199) 
-21.657628

>  <fragmenstein_mode>  (1199) 
expansion

>  <scratch_subdir>  (1199) 
/opt/xchem-fragalysis-2/maxwin/BulkDock/SCRATCH/511212/C20430-P22

>  <smiles>  (1199) 
CC(C)(C)c1nnc2n1C[C@H](C(=O)N[C@@H]1CCC1=O)CC2

>  <alias>  (1199) 
C20430-P22

>  <ref_mols>  (1199) 
A0239a,A0528a

>  <inspiration_score>  (1199) 
None

>  <tags>  (1199) 
BulkDock Fragalysis export,fragmenstein_placed,openbind_a71ev2a_c1_knitwork_impure,openbind_a71ev2a_c1_scaffolds

>  <fragmenstein_outcome>  (1199) 
acceptable

>  <fragmenstein_error>  (1199) 


>  <distance_score>  (1199) 
0.997249

>  <inchikey>  (1199) 
SFWHGSYKQXAWJE-UHFFFAOYSA-N

>  <name>  (1199) 
C20430-P22

>  <HIPPO Pose ID>  (1199) 
489368

>  <Energy>  (1199) 
19.908973

>  <exports>  (1199) 
['/opt/xchem-fragalysis-2/maxwin/BulkDock/OUTPUTS/openbind_a71ev2a_c1_knitwork_impure_165VXJF.sdf', '/opt/xchem-fragalysis-2/maxwin/BulkDock/OUTPUTS/openbind_a71ev2a_c1_knitwork_impure_1B07QS4.sdf', '/opt/xchem-fragalysis-2/maxwin/BulkDock/OUTPUTS/openbind_a71ev2a_c1_knitwork_impure_1B07X5R.sdf', '/opt/xchem-fragalysis-2/maxwin/openbind-hippo/a71ev2a/openbind_a71ev2a_c1_scaffold_products.sdf', '/opt/xchem-fragalysis-2/maxwin/openbind-hippo/a71ev2a/cycle_01/bulkdock/openbind_a71ev2a_c1_scaffold_products.sdf', '/opt/xchem-fragalysis-2/maxwin/openbind-hippo/a71ev2a/cycle_01/bulkdock/openbind_a71ev2a_c1_scaffolds.sdf']

>  <fragmenstein_runtime>  (1199) 
20.72189

$$$$
C6315-P170
     RDKit          3D

 14 14  0  0  0  0  0  0  0  0999 V2000
   11.5442   15.5045   24.9644 O   0  0  0  0  0  0  0  0  0  0  0  0
   11.3653   15.2255   23.8456 C   0  0  0  0  0  0  0  0  0  0  0  0
   12.4983   15.1048   22.8421 C   0  0  0  0  0  0  0  0  0  0  0  0
   12.3421   15.9535   21.6009 C   0  0  0  0  0  0  0  0  0  0  0  0
   11.3390   15.1472   20.3653 Cl  0  0  0  0  0  0  0  0  0  0  0  0
   10.0697   14.8183   23.1106 N   0  0  0  0  0  0  0  0  0  0  0  0
    8.7485   14.5782   23.6149 C   0  0  0  0  0  0  0  0  0  0  0  0
    8.7173   13.2296   24.3491 C   0  0  1  0  0  0  0  0  0  0  0  0
    7.2824   12.7779   24.5897 C   0  0  0  0  0  0  0  0  0  0  0  0
    7.2667   11.4190   25.2617 C   0  0  0  0  0  0  0  0  0  0  0  0
    8.0398   10.4461   24.5381 N   0  0  0  0  0  0  0  0  0  0  0  0
    9.2083   10.7255   23.8991 C   0  0  0  0  0  0  0  0  0  0  0  0
    9.9593    9.8255   23.5406 O   0  0  0  0  0  0  0  0  0  0  0  0
    9.5275   12.1647   23.6019 C   0  0  0  0  0  0  0  0  0  0  0  0
  1  2  2  0
  2  3  1  0
  3  4  1  0
  4  5  1  0
  2  6  1  0
  6  7  1  0
  8  7  1  6
  8  9  1  0
  9 10  1  0
 10 11  1  0
 11 12  1  0
 12 13  2  0
 12 14  1  0
 14  8  1  0
M  END
>  <ref_pdb>  (1200) 
A3579a

>  <subsites>  (1200) 
1 - Active Site

>  <HIPPO Compound ID>  (1200) 
3796

>  <energy_score>  (1200) 
-2.270037

>  <fragmenstein_mode>  (1200) 
expansion

>  <scratch_subdir>  (1200) 
/opt/xchem-fragalysis-2/maxwin/BulkDock/SCRATCH/511212/C6315-P170

>  <smiles>  (1200) 
O=C(CCCl)NC[C@H]1CCNC(=O)C1

>  <alias>  (1200) 
C6315-P170

>  <ref_mols>  (1200) 
A3579a,A1776a

>  <inspiration_score>  (1200) 
None

>  <tags>  (1200) 
BulkDock Fragalysis export,fragmenstein_placed,openbind_a71ev2a_c1_knitwork_impure,openbind_a71ev2a_c1_scaffolds

>  <fragmenstein_outcome>  (1200) 
acceptable

>  <fragmenstein_error>  (1200) 


>  <distance_score>  (1200) 
0.913421

>  <inchikey>  (1200) 
LCTNYMQLEGMDNQ-UHFFFAOYSA-N

>  <name>  (1200) 
C6315-P170

>  <HIPPO Pose ID>  (1200) 
489793

>  <Energy>  (1200) 
-32.660062

>  <exports>  (1200) 
['/opt/xchem-fragalysis-2/maxwin/BulkDock/OUTPUTS/openbind_a71ev2a_c1_knitwork_impure_165VXJF.sdf', '/opt/xchem-fragalysis-2/maxwin/BulkDock/OUTPUTS/openbind_a71ev2a_c1_knitwork_impure_1B07QS4.sdf', '/opt/xchem-fragalysis-2/maxwin/BulkDock/OUTPUTS/openbind_a71ev2a_c1_knitwork_impure_1B07X5R.sdf', '/opt/xchem-fragalysis-2/maxwin/openbind-hippo/a71ev2a/openbind_a71ev2a_c1_scaffold_products.sdf', '/opt/xchem-fragalysis-2/maxwin/openbind-hippo/a71ev2a/cycle_01/bulkdock/openbind_a71ev2a_c1_scaffold_products.sdf', '/opt/xchem-fragalysis-2/maxwin/openbind-hippo/a71ev2a/cycle_01/bulkdock/openbind_a71ev2a_c1_scaffolds.sdf']

>  <fragmenstein_runtime>  (1200) 
1.238976

$$$$
C6329-P170
     RDKit          3D

 17 17  0  0  0  0  0  0  0  0999 V2000
   12.5836   15.4224   20.4863 C   0  0  0  0  0  0  0  0  0  0  0  0
   11.7315   15.1322   21.6658 C   0  0  0  0  0  0  0  0  0  0  0  0
   12.2054   15.3874   22.9014 C   0  0  0  0  0  0  0  0  0  0  0  0
   11.6220   14.9601   24.1984 C   0  0  0  0  0  0  0  0  0  0  0  0
   12.3031   14.5001   25.0190 O   0  0  0  0  0  0  0  0  0  0  0  0
   10.1062   15.1402   24.1558 N   0  0  0  0  0  0  0  0  0  0  0  0
    9.0877   14.7073   25.0731 C   0  0  0  0  0  0  0  0  0  0  0  0
    8.4897   13.3911   24.5427 C   0  0  2  0  0  0  0  0  0  0  0  0
    7.4000   12.8489   25.4584 C   0  0  0  0  0  0  0  0  0  0  0  0
    6.9671   11.4994   24.9307 C   0  0  0  0  0  0  0  0  0  0  0  0
    8.0926   10.5037   24.7764 C   0  0  0  0  0  0  0  0  0  0  0  0
    9.2605   11.0769   24.0271 C   0  0  0  0  0  0  0  0  0  0  0  0
   10.0170   10.4067   23.3384 O   0  0  0  0  0  0  0  0  0  0  0  0
    9.5277   12.3946   24.2748 N   0  0  0  0  0  0  0  0  0  0  0  0
   10.4323   14.5152   21.2513 C   0  0  0  0  0  0  0  0  0  0  0  0
    9.3807   15.1598   21.8253 F   0  0  0  0  0  0  0  0  0  0  0  0
   10.2280   14.6467   19.9136 F   0  0  0  0  0  0  0  0  0  0  0  0
  1  2  1  0
  2  3  2  3
  3  4  1  0
  4  5  2  0
  4  6  1  0
  6  7  1  0
  8  7  1  1
  8  9  1  0
  9 10  1  0
 10 11  1  0
 11 12  1  0
 12 13  2  0
 12 14  1  0
  2 15  1  0
 15 16  1  0
 15 17  1  0
 14  8  1  0
M  END
>  <ref_pdb>  (1201) 
A3579a

>  <subsites>  (1201) 
1 - Active Site

>  <HIPPO Compound ID>  (1201) 
32214

>  <energy_score>  (1201) 
-12.167813

>  <fragmenstein_mode>  (1201) 
expansion

>  <scratch_subdir>  (1201) 
/opt/xchem-fragalysis-2/maxwin/BulkDock/SCRATCH/511212/C6329-P170

>  <smiles>  (1201) 
CC(=CC(=O)NC[C@@H]1CCCC(=O)N1)C(F)F

>  <alias>  (1201) 
C6329-P170

>  <ref_mols>  (1201) 
A3579a,A1776a

>  <inspiration_score>  (1201) 
None

>  <tags>  (1201) 
BulkDock Fragalysis export,fragmenstein_placed,openbind_a71ev2a_c1_knitwork_impure,openbind_a71ev2a_c1_scaffolds

>  <fragmenstein_outcome>  (1201) 
acceptable

>  <fragmenstein_error>  (1201) 


>  <distance_score>  (1201) 
0.981702

>  <inchikey>  (1201) 
FYGXQHWPDXQZJW-UHFFFAOYSA-N

>  <name>  (1201) 
C6329-P170

>  <HIPPO Pose ID>  (1201) 
489796

>  <Energy>  (1201) 
-16.548659

>  <exports>  (1201) 
['/opt/xchem-fragalysis-2/maxwin/BulkDock/OUTPUTS/openbind_a71ev2a_c1_knitwork_impure_165VXJF.sdf', '/opt/xchem-fragalysis-2/maxwin/BulkDock/OUTPUTS/openbind_a71ev2a_c1_knitwork_impure_1B07QS4.sdf', '/opt/xchem-fragalysis-2/maxwin/BulkDock/OUTPUTS/openbind_a71ev2a_c1_knitwork_impure_1B07X5R.sdf', '/opt/xchem-fragalysis-2/maxwin/openbind-hippo/a71ev2a/openbind_a71ev2a_c1_scaffold_products.sdf', '/opt/xchem-fragalysis-2/maxwin/openbind-hippo/a71ev2a/cycle_01/bulkdock/openbind_a71ev2a_c1_scaffold_products.sdf', '/opt/xchem-fragalysis-2/maxwin/openbind-hippo/a71ev2a/cycle_01/bulkdock/openbind_a71ev2a_c1_scaffolds.sdf']

>  <fragmenstein_runtime>  (1201) 
3.207574

$$$$
C8881-P274
     RDKit          3D

 23 25  0  0  0  0  0  0  0  0999 V2000
   10.0577   12.3690   24.6150 O   0  0  0  0  0  0  0  0  0  0  0  0
    9.0237   12.8923   24.5645 C   0  0  0  0  0  0  0  0  0  0  0  0
    8.6583   14.3371   24.2088 N   0  0  0  0  0  0  0  0  0  0  0  0
    9.4786   15.4188   23.7482 C   0  0  0  0  0  0  0  0  0  0  0  0
    9.2316   15.6738   22.2467 C   0  0  1  0  0  0  0  0  0  0  0  0
   10.2512   15.0068   21.4877 O   0  0  0  0  0  0  0  0  0  0  0  0
    7.8360   15.1890   21.7544 C   0  0  0  0  0  0  0  0  0  0  0  0
    6.6677   15.3696   22.6439 N   0  0  0  0  0  0  0  0  0  0  0  0
    6.4064   16.7724   22.9875 C   0  0  0  0  0  0  0  0  0  0  0  0
    5.4351   16.8206   24.1736 C   0  0  0  0  0  0  0  0  0  0  0  0
    4.1805   16.0339   23.8852 C   0  0  0  0  0  0  0  0  0  0  0  0
    3.0140   16.2614   24.6273 C   0  0  0  0  0  0  0  0  0  0  0  0
    1.8549   15.5362   24.3538 C   0  0  0  0  0  0  0  0  0  0  0  0
    1.8566   14.5748   23.3459 C   0  0  0  0  0  0  0  0  0  0  0  0
    3.0197   14.3319   22.6139 C   0  0  0  0  0  0  0  0  0  0  0  0
    4.1960   15.0455   22.8838 C   0  0  0  0  0  0  0  0  0  0  0  0
    5.4433   14.7873   22.0572 C   0  0  0  0  0  0  0  0  0  0  0  0
    7.6721   12.1594   24.7619 C   0  0  2  0  0  0  0  0  0  0  0  0
    6.7665   12.7982   25.8337 C   0  0  0  0  0  0  0  0  0  0  0  0
    6.1104   11.8653   26.8446 C   0  0  0  0  0  0  0  0  0  0  0  0
    6.0163   10.4291   26.3822 C   0  0  0  0  0  0  0  0  0  0  0  0
    7.3255    9.9593   26.0001 N   0  0  0  0  0  0  0  0  0  0  0  0
    7.8510   10.6357   24.8220 C   0  0  0  0  0  0  0  0  0  0  0  0
  1  2  2  0
  2  3  1  0
  3  4  1  0
  4  5  1  0
  5  6  1  6
  5  7  1  0
  7  8  1  0
  8  9  1  0
  9 10  1  0
 10 11  1  0
 11 12  2  0
 12 13  1  0
 13 14  2  0
 14 15  1  0
 15 16  2  0
 16 17  1  0
 18  2  1  1
 18 19  1  0
 19 20  1  0
 20 21  1  0
 21 22  1  0
 22 23  1  0
 17  8  1  0
 23 18  1  0
 16 11  1  0
M  END
>  <ref_pdb>  (1202) 
A4031a

>  <subsites>  (1202) 
1 - Active Site,3 - A0541/A/147/1

>  <HIPPO Compound ID>  (1202) 
4724

>  <energy_score>  (1202) 
-15.425411

>  <fragmenstein_mode>  (1202) 
expansion

>  <scratch_subdir>  (1202) 
/opt/xchem-fragalysis-2/maxwin/BulkDock/SCRATCH/511212/C8881-P274

>  <smiles>  (1202) 
O=C(NC[C@@H](O)CN1CCc2ccccc2C1)[C@@H]1CCCNC1

>  <alias>  (1202) 
C8881-P274

>  <ref_mols>  (1202) 
A4031a,A0586a

>  <inspiration_score>  (1202) 
None

>  <tags>  (1202) 
BulkDock Fragalysis export,fragmenstein_placed,openbind_a71ev2a_c1_knitwork_impure,openbind_a71ev2a_c1_scaffolds

>  <fragmenstein_outcome>  (1202) 
acceptable

>  <fragmenstein_error>  (1202) 


>  <distance_score>  (1202) 
0.950285

>  <inchikey>  (1202) 
GMKJOMOIOGJQHB-UHFFFAOYSA-N

>  <name>  (1202) 
C8881-P274

>  <HIPPO Pose ID>  (1202) 
489828

>  <Energy>  (1202) 
95.232584

>  <exports>  (1202) 
['/opt/xchem-fragalysis-2/maxwin/BulkDock/OUTPUTS/openbind_a71ev2a_c1_knitwork_impure_165VXJF.sdf', '/opt/xchem-fragalysis-2/maxwin/BulkDock/OUTPUTS/openbind_a71ev2a_c1_knitwork_impure_1B07QS4.sdf', '/opt/xchem-fragalysis-2/maxwin/BulkDock/OUTPUTS/openbind_a71ev2a_c1_knitwork_impure_1B07X5R.sdf', '/opt/xchem-fragalysis-2/maxwin/openbind-hippo/a71ev2a/openbind_a71ev2a_c1_scaffold_products.sdf', '/opt/xchem-fragalysis-2/maxwin/openbind-hippo/a71ev2a/cycle_01/bulkdock/openbind_a71ev2a_c1_scaffold_products.sdf', '/opt/xchem-fragalysis-2/maxwin/openbind-hippo/a71ev2a/cycle_01/bulkdock/openbind_a71ev2a_c1_scaffolds.sdf']

>  <fragmenstein_runtime>  (1202) 
5.163697

$$$$
C684-P103
     RDKit          3D

 23 25  0  0  0  0  0  0  0  0999 V2000
   21.5342   -5.8702   14.8740 C   0  0  0  0  0  0  0  0  0  0  0  0
   20.9004   -6.8904   15.8164 C   0  0  2  0  0  0  0  0  0  0  0  0
   20.5202   -8.0514   15.0793 O   0  0  0  0  0  0  0  0  0  0  0  0
   21.5072   -9.0658   15.1361 C   0  0  0  0  0  0  0  0  0  0  0  0
   21.0898  -10.0779   14.3423 F   0  0  0  0  0  0  0  0  0  0  0  0
   22.6625   -8.5965   14.6180 F   0  0  0  0  0  0  0  0  0  0  0  0
   19.6962   -6.2341   16.5448 C   0  0  0  0  0  0  0  0  0  0  0  0
   19.7214   -5.1422   16.9573 O   0  0  0  0  0  0  0  0  0  0  0  0
   18.5728   -7.3047   16.5998 N   0  0  0  0  0  0  0  0  0  0  0  0
   17.2899   -7.2219   17.0633 C   0  0  0  0  0  0  0  0  0  0  0  0
   16.5643   -8.3376   16.9048 N   0  0  0  0  0  0  0  0  0  0  0  0
   15.3025   -7.9224   17.0558 N   0  0  0  0  0  0  0  0  0  0  0  0
   15.1866   -6.5813   17.2726 C   0  0  0  0  0  0  0  0  0  0  0  0
   14.0652   -5.7496   17.2428 C   0  0  0  0  0  0  0  0  0  0  0  0
   14.2575   -4.3992   17.5160 C   0  0  0  0  0  0  0  0  0  0  0  0
   15.5047   -3.9358   17.9220 C   0  0  0  0  0  0  0  0  0  0  0  0
   16.6161   -4.8070   18.0098 C   0  0  0  0  0  0  0  0  0  0  0  0
   17.7284   -4.3758   18.7763 N   0  0  0  0  0  0  0  0  0  0  0  0
   18.5420   -5.1824   19.5578 C   0  0  0  0  0  0  0  0  0  0  0  0
   19.3655   -4.3521   20.2778 C   0  0  0  0  0  0  0  0  0  0  0  0
   18.9609   -3.0605   19.9138 C   0  0  0  0  0  0  0  0  0  0  0  0
   17.9226   -3.0628   19.0801 N   0  0  0  0  0  0  0  0  0  0  0  0
   16.4845   -6.1353   17.5371 C   0  0  0  0  0  0  0  0  0  0  0  0
  2  1  1  6
  2  3  1  0
  3  4  1  0
  4  5  1  0
  4  6  1  0
  2  7  1  0
  7  8  2  0
  7  9  1  0
  9 10  1  0
 10 11  2  0
 11 12  1  0
 12 13  1  0
 13 14  2  0
 14 15  1  0
 15 16  2  0
 16 17  1  0
 17 18  1  0
 18 19  1  0
 19 20  2  0
 20 21  1  0
 21 22  2  0
 17 23  2  0
 23 10  1  0
 23 13  1  0
 22 18  1  0
M  END
>  <ref_pdb>  (1203) 
A1105b

>  <subsites>  (1203) 
2 - A3977/A/202/1

>  <HIPPO Compound ID>  (1203) 
684

>  <energy_score>  (1203) 
-50.342054

>  <fragmenstein_mode>  (1203) 
expansion

>  <scratch_subdir>  (1203) 
/opt/xchem-fragalysis-2/maxwin/BulkDock/SCRATCH/511213/C684-P103

>  <smiles>  (1203) 
C[C@H](OC(F)F)C(=O)Nc1n[nH]c2cccc(-n3cccn3)c12

>  <alias>  (1203) 
C684-P103

>  <ref_mols>  (1203) 
A0497a,A1105b

>  <inspiration_score>  (1203) 
None

>  <tags>  (1203) 
BulkDock Fragalysis export,fragmenstein_placed,openbind_a71ev2a_c1_knitwork_impure,openbind_a71ev2a_c1_scaffolds

>  <fragmenstein_outcome>  (1203) 
acceptable

>  <fragmenstein_error>  (1203) 


>  <distance_score>  (1203) 
0.875732

>  <inchikey>  (1203) 
SZDLHMXCGWCAQL-UHFFFAOYSA-N

>  <name>  (1203) 
C684-P103

>  <HIPPO Pose ID>  (1203) 
490812

>  <Energy>  (1203) 
44.720254

>  <exports>  (1203) 
['/opt/xchem-fragalysis-2/maxwin/BulkDock/OUTPUTS/openbind_a71ev2a_c1_knitwork_impure_165VXJF.sdf', '/opt/xchem-fragalysis-2/maxwin/BulkDock/OUTPUTS/openbind_a71ev2a_c1_knitwork_impure_1B07QS4.sdf', '/opt/xchem-fragalysis-2/maxwin/BulkDock/OUTPUTS/openbind_a71ev2a_c1_knitwork_impure_1B07X5R.sdf', '/opt/xchem-fragalysis-2/maxwin/openbind-hippo/a71ev2a/openbind_a71ev2a_c1_scaffold_products.sdf', '/opt/xchem-fragalysis-2/maxwin/openbind-hippo/a71ev2a/cycle_01/bulkdock/openbind_a71ev2a_c1_scaffold_products.sdf', '/opt/xchem-fragalysis-2/maxwin/openbind-hippo/a71ev2a/cycle_01/bulkdock/openbind_a71ev2a_c1_scaffolds.sdf']

>  <fragmenstein_runtime>  (1203) 
3.663071

$$$$
C542-P199
     RDKit          3D

 19 22  0  0  0  0  0  0  0  0999 V2000
   27.1953   20.0191   21.6850 C   0  0  0  0  0  0  0  0  0  0  0  0
   28.2951   20.3774   20.9121 C   0  0  0  0  0  0  0  0  0  0  0  0
   28.1344   21.1313   19.7444 C   0  0  0  0  0  0  0  0  0  0  0  0
   26.8351   21.5137   19.3703 C   0  0  0  0  0  0  0  0  0  0  0  0
   26.3137   22.4249   18.0120 S   0  0  0  0  0  0  0  0  0  0  0  0
   24.6675   22.3223   18.5407 C   0  0  0  0  0  0  0  0  0  0  0  0
   23.6273   22.9781   17.9315 N   0  0  0  0  0  0  0  0  0  0  0  0
   23.6551   23.2231   16.4818 C   0  0  0  0  0  0  0  0  0  0  0  0
   22.5637   24.2422   16.0703 C   0  0  0  0  0  0  0  0  0  0  0  0
   21.1978   23.8674   16.5347 N   0  0  0  0  0  0  0  0  0  0  0  0
   20.2606   24.9539   16.1975 C   0  0  0  0  0  0  0  0  0  0  0  0
   19.9728   24.9647   14.6720 C   0  0  0  0  0  0  0  0  0  0  0  0
   18.4878   25.1732   15.0368 C   0  0  0  0  0  0  0  0  0  0  0  0
   18.7991   24.4574   16.3679 C   0  0  0  0  0  0  0  0  0  0  0  0
   21.2588   23.7203   18.0098 C   0  0  0  0  0  0  0  0  0  0  0  0
   22.2883   22.6615   18.4517 C   0  0  0  0  0  0  0  0  0  0  0  0
   24.5093   21.6213   19.6453 N   0  0  0  0  0  0  0  0  0  0  0  0
   25.7213   21.1652   20.1284 C   0  0  0  0  0  0  0  0  0  0  0  0
   25.9069   20.4076   21.3036 C   0  0  0  0  0  0  0  0  0  0  0  0
  1  2  2  0
  2  3  1  0
  3  4  2  0
  4  5  1  0
  5  6  1  0
  6  7  1  0
  7  8  1  0
  8  9  1  0
  9 10  1  0
 10 11  1  0
 11 12  1  0
 12 13  1  0
 13 14  1  0
 10 15  1  0
 15 16  1  0
  6 17  2  0
 17 18  1  0
 18 19  2  0
 19  1  1  0
 18  4  1  0
 16  7  1  0
 14 11  1  0
M  END
>  <ref_pdb>  (1204) 
A3621a

>  <subsites>  (1204) 
1 - Active Site,5 - A3181/A/202/1

>  <HIPPO Compound ID>  (1204) 
4586

>  <energy_score>  (1204) 
-49.985449

>  <fragmenstein_mode>  (1204) 
expansion

>  <scratch_subdir>  (1204) 
/opt/xchem-fragalysis-2/maxwin/BulkDock/SCRATCH/511213/C542-P199

>  <smiles>  (1204) 
c1ccc2sc(N3CCN(C4CCC4)CC3)nc2c1

>  <alias>  (1204) 
C542-P199

>  <ref_mols>  (1204) 
A0514b,A3621a

>  <inspiration_score>  (1204) 
None

>  <tags>  (1204) 
BulkDock Fragalysis export,fragmenstein_placed,openbind_a71ev2a_c1_knitwork_impure,openbind_a71ev2a_c1_scaffolds

>  <fragmenstein_outcome>  (1204) 
acceptable

>  <fragmenstein_error>  (1204) 


>  <distance_score>  (1204) 
0.539544

>  <inchikey>  (1204) 
RMNLILARQBZGID-UHFFFAOYSA-N

>  <name>  (1204) 
C542-P199

>  <HIPPO Pose ID>  (1204) 
490944

>  <Energy>  (1204) 
74.51487

>  <exports>  (1204) 
['/opt/xchem-fragalysis-2/maxwin/BulkDock/OUTPUTS/openbind_a71ev2a_c1_knitwork_impure_165VXJF.sdf', '/opt/xchem-fragalysis-2/maxwin/BulkDock/OUTPUTS/openbind_a71ev2a_c1_knitwork_impure_1B07QS4.sdf', '/opt/xchem-fragalysis-2/maxwin/BulkDock/OUTPUTS/openbind_a71ev2a_c1_knitwork_impure_1B07X5R.sdf', '/opt/xchem-fragalysis-2/maxwin/openbind-hippo/a71ev2a/openbind_a71ev2a_c1_scaffold_products.sdf', '/opt/xchem-fragalysis-2/maxwin/openbind-hippo/a71ev2a/cycle_01/bulkdock/openbind_a71ev2a_c1_scaffold_products.sdf', '/opt/xchem-fragalysis-2/maxwin/openbind-hippo/a71ev2a/cycle_01/bulkdock/openbind_a71ev2a_c1_scaffolds.sdf']

>  <fragmenstein_runtime>  (1204) 
24.871225

$$$$
C3646-P239
     RDKit          3D

 11 12  0  0  0  0  0  0  0  0999 V2000
    8.2389   11.4429   24.8582 C   0  0  0  0  0  0  0  0  0  0  0  0
    7.4643   12.2897   25.6414 C   0  0  0  0  0  0  0  0  0  0  0  0
    6.4651   11.7523   26.4486 C   0  0  0  0  0  0  0  0  0  0  0  0
    6.2595   10.3782   26.4319 C   0  0  0  0  0  0  0  0  0  0  0  0
    5.2574    9.7500   27.2712 C   0  0  0  0  0  0  0  0  0  0  0  0
    4.3622    8.7169   27.1268 C   0  0  0  0  0  0  0  0  0  0  0  0
    3.7633    8.5916   28.3903 C   0  0  0  0  0  0  0  0  0  0  0  0
    4.2205    9.5051   29.2498 N   0  0  0  0  0  0  0  0  0  0  0  0
    5.1634   10.2354   28.5395 O   0  0  0  0  0  0  0  0  0  0  0  0
    6.9972    9.5350   25.6686 N   0  0  0  0  0  0  0  0  0  0  0  0
    7.9740   10.0852   24.9069 C   0  0  0  0  0  0  0  0  0  0  0  0
  1  2  2  0
  2  3  1  0
  3  4  2  0
  4  5  1  0
  5  6  2  0
  6  7  1  0
  7  8  2  0
  8  9  1  0
  4 10  1  0
 10 11  2  0
 11  1  1  0
  9  5  1  0
M  END
>  <ref_pdb>  (1205) 
A3920a

>  <subsites>  (1205) 
1 - Active Site

>  <HIPPO Compound ID>  (1205) 
4036

>  <energy_score>  (1205) 
-16.812514

>  <fragmenstein_mode>  (1205) 
expansion

>  <scratch_subdir>  (1205) 
/opt/xchem-fragalysis-2/maxwin/BulkDock/SCRATCH/511213/C3646-P239

>  <smiles>  (1205) 
c1ccc(-c2ccno2)nc1

>  <alias>  (1205) 
C3646-P239

>  <ref_mols>  (1205) 
A0556a,A3920a

>  <inspiration_score>  (1205) 
None

>  <tags>  (1205) 
BulkDock Fragalysis export,fragmenstein_placed,openbind_a71ev2a_c1_knitwork_impure,openbind_a71ev2a_c1_scaffolds

>  <fragmenstein_outcome>  (1205) 
acceptable

>  <fragmenstein_error>  (1205) 


>  <distance_score>  (1205) 
0.994182

>  <inchikey>  (1205) 
YUUBMJABYAMHEQ-UHFFFAOYSA-N

>  <name>  (1205) 
C3646-P239

>  <HIPPO Pose ID>  (1205) 
491571

>  <Energy>  (1205) 
24.783779

>  <exports>  (1205) 
['/opt/xchem-fragalysis-2/maxwin/BulkDock/OUTPUTS/openbind_a71ev2a_c1_knitwork_impure_165VXJF.sdf', '/opt/xchem-fragalysis-2/maxwin/BulkDock/OUTPUTS/openbind_a71ev2a_c1_knitwork_impure_1B07QS4.sdf', '/opt/xchem-fragalysis-2/maxwin/BulkDock/OUTPUTS/openbind_a71ev2a_c1_knitwork_impure_1B07X5R.sdf', '/opt/xchem-fragalysis-2/maxwin/openbind-hippo/a71ev2a/openbind_a71ev2a_c1_scaffold_products.sdf', '/opt/xchem-fragalysis-2/maxwin/openbind-hippo/a71ev2a/cycle_01/bulkdock/openbind_a71ev2a_c1_scaffold_products.sdf', '/opt/xchem-fragalysis-2/maxwin/openbind-hippo/a71ev2a/cycle_01/bulkdock/openbind_a71ev2a_c1_scaffolds.sdf']

>  <fragmenstein_runtime>  (1205) 
2.123477

$$$$
C7625-P159
     RDKit          3D

 19 21  0  0  0  0  0  0  0  0999 V2000
    8.6449   15.8995   22.2891 O   0  0  0  0  0  0  0  0  0  0  0  0
    8.6228   15.0688   23.4709 S   0  0  0  0  0  0  0  0  0  0  0  0
    8.0844   15.5690   24.7232 O   0  0  0  0  0  0  0  0  0  0  0  0
   10.2916   14.6069   23.8478 C   0  0  0  0  0  0  0  0  0  0  0  0
   11.1322   14.0362   22.7266 C   0  0  0  0  0  0  0  0  0  0  0  0
   11.3584   15.0029   21.5575 C   0  0  0  0  0  0  0  0  0  0  0  0
   10.4892   14.6587   20.3846 C   0  0  0  0  0  0  0  0  0  0  0  0
   11.0678   14.7667   18.9948 C   0  0  0  0  0  0  0  0  0  0  0  0
    9.9960   15.7033   19.4310 C   0  0  0  0  0  0  0  0  0  0  0  0
    7.7478   13.6865   23.0850 N   0  0  0  0  0  0  0  0  0  0  0  0
    7.4569   12.6397   24.0927 C   0  0  0  0  0  0  0  0  0  0  0  0
    8.5743   11.5952   24.1681 C   0  0  0  0  0  0  0  0  0  0  0  0
    8.3674   10.6604   25.3567 C   0  0  0  0  0  0  0  0  0  0  0  0
    6.9735   10.6340   25.7542 N   0  0  0  0  0  0  0  0  0  0  0  0
    6.4589   11.9082   26.2389 C   0  0  0  0  0  0  0  0  0  0  0  0
    7.0541   13.0996   25.4858 C   0  0  0  0  0  0  0  0  0  0  0  0
    6.6129   14.0322   22.1682 C   0  0  0  0  0  0  0  0  0  0  0  0
    5.6478   15.1574   22.4864 C   0  0  0  0  0  0  0  0  0  0  0  0
    5.1505   13.7573   22.3990 C   0  0  0  0  0  0  0  0  0  0  0  0
  1  2  2  0
  2  3  2  0
  2  4  1  0
  4  5  1  0
  5  6  1  0
  6  7  1  0
  7  8  1  0
  8  9  1  0
  2 10  1  0
 10 11  1  0
 11 12  1  0
 12 13  1  0
 13 14  1  0
 14 15  1  0
 15 16  1  0
 10 17  1  0
 17 18  1  0
 18 19  1  0
  9  7  1  0
 16 11  1  0
 19 17  1  0
M  END
>  <ref_pdb>  (1206) 
A3223a

>  <subsites>  (1206) 
1 - Active Site

>  <HIPPO Compound ID>  (1206) 
7625

>  <energy_score>  (1206) 
-45.470948

>  <fragmenstein_mode>  (1206) 
expansion

>  <scratch_subdir>  (1206) 
/opt/xchem-fragalysis-2/maxwin/BulkDock/SCRATCH/512032/C7625-P159

>  <smiles>  (1206) 
O=S(=O)(CCCC1CC1)N(C1CCNCC1)C1CC1

>  <alias>  (1206) 
C7625-P159

>  <ref_mols>  (1206) 
A0719a,A3223a

>  <inspiration_score>  (1206) 
None

>  <tags>  (1206) 
BulkDock Fragalysis export,fragmenstein_placed,openbind_a71ev2a_c1_knitwork_impure,openbind_a71ev2a_c1_scaffolds

>  <fragmenstein_outcome>  (1206) 
acceptable

>  <fragmenstein_error>  (1206) 


>  <distance_score>  (1206) 
0.937718

>  <inchikey>  (1206) 
KCJHWNBJYBCBFO-UHFFFAOYSA-N

>  <name>  (1206) 
C7625-P159

>  <HIPPO Pose ID>  (1206) 
493064

>  <Energy>  (1206) 
6.615831

>  <exports>  (1206) 
['/opt/xchem-fragalysis-2/maxwin/BulkDock/OUTPUTS/openbind_a71ev2a_c1_knitwork_impure_165VXJF.sdf', '/opt/xchem-fragalysis-2/maxwin/BulkDock/OUTPUTS/openbind_a71ev2a_c1_knitwork_impure_1B07QS4.sdf', '/opt/xchem-fragalysis-2/maxwin/BulkDock/OUTPUTS/openbind_a71ev2a_c1_knitwork_impure_1B07X5R.sdf', '/opt/xchem-fragalysis-2/maxwin/openbind-hippo/a71ev2a/openbind_a71ev2a_c1_scaffold_products.sdf', '/opt/xchem-fragalysis-2/maxwin/openbind-hippo/a71ev2a/cycle_01/bulkdock/openbind_a71ev2a_c1_scaffold_products.sdf', '/opt/xchem-fragalysis-2/maxwin/openbind-hippo/a71ev2a/cycle_01/bulkdock/openbind_a71ev2a_c1_scaffolds.sdf']

>  <fragmenstein_runtime>  (1206) 
10.289312

$$$$
C9375-P356
     RDKit          3D

 14 14  0  0  0  0  0  0  0  0999 V2000
   10.7700   15.6344   19.6480 C   0  0  0  0  0  0  0  0  0  0  0  0
   11.0108   14.8554   20.9280 C   0  0  1  0  0  0  0  0  0  0  0  0
   11.9660   15.5044   21.8142 C   0  0  0  0  0  0  0  0  0  0  0  0
   12.5727   15.8359   22.7407 N   0  0  0  0  0  0  0  0  0  0  0  0
    9.7257   14.6859   21.7450 C   0  0  0  0  0  0  0  0  0  0  0  0
    9.9891   13.8926   22.9889 N   0  0  0  0  0  0  0  0  0  0  0  0
    8.7398   13.8856   24.0943 S   0  0  0  0  0  0  0  0  0  0  0  0
    7.5220   14.1726   23.3814 O   0  0  0  0  0  0  0  0  0  0  0  0
    9.1895   14.6267   25.2453 O   0  0  0  0  0  0  0  0  0  0  0  0
    8.7072   12.2655   24.5318 N   0  0  0  0  0  0  0  0  0  0  0  0
    7.4466   11.8511   25.2062 C   0  0  0  0  0  0  0  0  0  0  0  0
    7.3587   10.3450   25.0028 C   0  0  0  0  0  0  0  0  0  0  0  0
    8.4562    9.9788   24.0242 C   0  0  0  0  0  0  0  0  0  0  0  0
    8.8938   11.2991   23.4402 C   0  0  0  0  0  0  0  0  0  0  0  0
  2  1  1  6
  2  3  1  0
  3  4  3  0
  2  5  1  0
  5  6  1  0
  6  7  1  0
  7  8  2  0
  7  9  2  0
  7 10  1  0
 10 11  1  0
 11 12  1  0
 12 13  1  0
 13 14  1  0
 14 10  1  0
M  END
>  <ref_pdb>  (1207) 
A4418a

>  <subsites>  (1207) 
1 - Active Site

>  <HIPPO Compound ID>  (1207) 
8502

>  <energy_score>  (1207) 
-25.085276

>  <fragmenstein_mode>  (1207) 
expansion

>  <scratch_subdir>  (1207) 
/opt/xchem-fragalysis-2/maxwin/BulkDock/SCRATCH/512032/C9375-P356

>  <smiles>  (1207) 
C[C@@H](C#N)CNS(=O)(=O)N1CCCC1

>  <alias>  (1207) 
C9375-P356

>  <ref_mols>  (1207) 
A4418a,A0719a

>  <inspiration_score>  (1207) 
None

>  <tags>  (1207) 
BulkDock Fragalysis export,fragmenstein_placed,openbind_a71ev2a_c1_knitwork_impure,openbind_a71ev2a_c1_scaffolds

>  <fragmenstein_outcome>  (1207) 
acceptable

>  <fragmenstein_error>  (1207) 


>  <distance_score>  (1207) 
0.956257

>  <inchikey>  (1207) 
RJQPPZGWNZQLTO-UHFFFAOYSA-N

>  <name>  (1207) 
C9375-P356

>  <HIPPO Pose ID>  (1207) 
493630

>  <Energy>  (1207) 
-163.697897

>  <exports>  (1207) 
['/opt/xchem-fragalysis-2/maxwin/BulkDock/OUTPUTS/openbind_a71ev2a_c1_knitwork_impure_165VXJF.sdf', '/opt/xchem-fragalysis-2/maxwin/BulkDock/OUTPUTS/openbind_a71ev2a_c1_knitwork_impure_1B07QS4.sdf', '/opt/xchem-fragalysis-2/maxwin/BulkDock/OUTPUTS/openbind_a71ev2a_c1_knitwork_impure_1B07X5R.sdf', '/opt/xchem-fragalysis-2/maxwin/openbind-hippo/a71ev2a/openbind_a71ev2a_c1_scaffold_products.sdf', '/opt/xchem-fragalysis-2/maxwin/openbind-hippo/a71ev2a/cycle_01/bulkdock/openbind_a71ev2a_c1_scaffold_products.sdf', '/opt/xchem-fragalysis-2/maxwin/openbind-hippo/a71ev2a/cycle_01/bulkdock/openbind_a71ev2a_c1_scaffolds.sdf']

>  <fragmenstein_runtime>  (1207) 
5.168999

$$$$
C9394-P356
     RDKit          3D

 13 13  0  0  0  0  0  0  0  0999 V2000
   11.0131   15.4018   19.3794 C   0  0  0  0  0  0  0  0  0  0  0  0
   11.6378   14.9567   20.4778 C   0  0  0  0  0  0  0  0  0  0  0  0
   11.7332   15.7059   21.7703 C   0  0  0  0  0  0  0  0  0  0  0  0
   11.1316   14.9776   22.8489 O   0  0  0  0  0  0  0  0  0  0  0  0
    9.7538   14.7015   22.5821 C   0  0  0  0  0  0  0  0  0  0  0  0
    8.9220   14.6791   23.8593 C   0  0  1  0  0  0  0  0  0  0  0  0
    7.5387   14.5819   23.5325 O   0  0  0  0  0  0  0  0  0  0  0  0
    9.3109   13.6314   24.9023 C   0  0  0  0  0  0  0  0  0  0  0  0
    8.7798   12.2816   24.8104 N   0  0  0  0  0  0  0  0  0  0  0  0
    9.0580   11.5046   23.6224 C   0  0  0  0  0  0  0  0  0  0  0  0
    8.4589   10.1623   23.9966 C   0  0  0  0  0  0  0  0  0  0  0  0
    7.3496   10.4933   24.9915 C   0  0  0  0  0  0  0  0  0  0  0  0
    7.4122   12.0011   25.2014 C   0  0  0  0  0  0  0  0  0  0  0  0
  1  2  2  0
  2  3  1  0
  3  4  1  0
  4  5  1  0
  5  6  1  0
  6  7  1  6
  6  8  1  0
  8  9  1  0
  9 10  1  0
 10 11  1  0
 11 12  1  0
 12 13  1  0
 13  9  1  0
M  END
>  <ref_pdb>  (1208) 
A4418a

>  <subsites>  (1208) 
1 - Active Site

>  <HIPPO Compound ID>  (1208) 
16768

>  <energy_score>  (1208) 
-17.942454

>  <fragmenstein_mode>  (1208) 
expansion

>  <scratch_subdir>  (1208) 
/opt/xchem-fragalysis-2/maxwin/BulkDock/SCRATCH/512032/C9394-P356

>  <smiles>  (1208) 
C=CCOC[C@@H](O)CN1CCCC1

>  <alias>  (1208) 
C9394-P356

>  <ref_mols>  (1208) 
A4418a,A0719a

>  <inspiration_score>  (1208) 
None

>  <tags>  (1208) 
BulkDock Fragalysis export,fragmenstein_placed,openbind_a71ev2a_c1_knitwork_impure,openbind_a71ev2a_c1_scaffolds

>  <fragmenstein_outcome>  (1208) 
acceptable

>  <fragmenstein_error>  (1208) 


>  <distance_score>  (1208) 
0.91672

>  <inchikey>  (1208) 
ALJLPWDQYMWXDZ-UHFFFAOYSA-N

>  <name>  (1208) 
C9394-P356

>  <HIPPO Pose ID>  (1208) 
493641

>  <Energy>  (1208) 
64.500121

>  <exports>  (1208) 
['/opt/xchem-fragalysis-2/maxwin/BulkDock/OUTPUTS/openbind_a71ev2a_c1_knitwork_impure_165VXJF.sdf', '/opt/xchem-fragalysis-2/maxwin/BulkDock/OUTPUTS/openbind_a71ev2a_c1_knitwork_impure_1B07QS4.sdf', '/opt/xchem-fragalysis-2/maxwin/BulkDock/OUTPUTS/openbind_a71ev2a_c1_knitwork_impure_1B07X5R.sdf', '/opt/xchem-fragalysis-2/maxwin/openbind-hippo/a71ev2a/openbind_a71ev2a_c1_scaffold_products.sdf', '/opt/xchem-fragalysis-2/maxwin/openbind-hippo/a71ev2a/cycle_01/bulkdock/openbind_a71ev2a_c1_scaffold_products.sdf', '/opt/xchem-fragalysis-2/maxwin/openbind-hippo/a71ev2a/cycle_01/bulkdock/openbind_a71ev2a_c1_scaffolds.sdf']

>  <fragmenstein_runtime>  (1208) 
3.844121

$$$$
C8155-P271
     RDKit          3D

 16 16  0  0  0  0  0  0  0  0999 V2000
   10.5565   15.5001   18.5292 C   0  0  0  0  0  0  0  0  0  0  0  0
   10.8809   15.9369   19.9106 C   0  0  0  0  0  0  0  0  0  0  0  0
   11.7275   15.2323   20.6664 C   0  0  0  0  0  0  0  0  0  0  0  0
   12.2846   15.6771   21.9088 C   0  0  0  0  0  0  0  0  0  0  0  0
   11.7059   15.8084   23.1074 C   0  0  0  0  0  0  0  0  0  0  0  0
   10.3113   15.5999   23.5796 C   0  0  0  0  0  0  0  0  0  0  0  0
    9.5905   14.6837   22.7135 N   0  0  0  0  0  0  0  0  0  0  0  0
    8.2944   13.9340   23.4085 S   0  0  0  0  0  0  0  0  0  0  0  0
    7.6693   14.8739   24.3031 O   0  0  0  0  0  0  0  0  0  0  0  0
    7.5562   13.2330   22.3878 O   0  0  0  0  0  0  0  0  0  0  0  0
    9.0872   12.8242   24.3564 N   0  0  0  0  0  0  0  0  0  0  0  0
    8.3632   12.3390   25.5217 C   0  0  0  0  0  0  0  0  0  0  0  0
    7.5074   11.1549   25.1683 C   0  0  0  0  0  0  0  0  0  0  0  0
    8.3847   10.0191   24.6913 C   0  0  0  0  0  0  0  0  0  0  0  0
    9.3822   10.4392   23.6238 C   0  0  0  0  0  0  0  0  0  0  0  0
    9.9882   11.8346   23.7509 C   0  0  0  0  0  0  0  0  0  0  0  0
  1  2  1  0
  2  3  2  3
  3  4  1  0
  4  5  2  3
  5  6  1  0
  6  7  1  0
  7  8  1  0
  8  9  2  0
  8 10  2  0
  8 11  1  0
 11 12  1  0
 12 13  1  0
 13 14  1  0
 14 15  1  0
 15 16  1  0
 16 11  1  0
M  END
>  <ref_pdb>  (1209) 
A4020b

>  <subsites>  (1209) 
1 - Active Site

>  <HIPPO Compound ID>  (1209) 
8155

>  <energy_score>  (1209) 
-35.459288

>  <fragmenstein_mode>  (1209) 
expansion

>  <scratch_subdir>  (1209) 
/opt/xchem-fragalysis-2/maxwin/BulkDock/SCRATCH/512229/C8155-P271

>  <smiles>  (1209) 
CC=CC=CCNS(=O)(=O)N1CCCCC1

>  <alias>  (1209) 
C8155-P271

>  <ref_mols>  (1209) 
A0719a,A4020b

>  <inspiration_score>  (1209) 
None

>  <tags>  (1209) 
BulkDock Fragalysis export,fragmenstein_placed,openbind_a71ev2a_c1_knitwork_impure,openbind_a71ev2a_c1_scaffolds

>  <fragmenstein_outcome>  (1209) 
acceptable

>  <fragmenstein_error>  (1209) 


>  <distance_score>  (1209) 
0.999717

>  <inchikey>  (1209) 
QQLANTWMZZICGE-UHFFFAOYSA-N

>  <name>  (1209) 
C8155-P271

>  <HIPPO Pose ID>  (1209) 
494723

>  <Energy>  (1209) 
-187.335632

>  <exports>  (1209) 
['/opt/xchem-fragalysis-2/maxwin/BulkDock/OUTPUTS/openbind_a71ev2a_c1_knitwork_impure_165VXJF.sdf', '/opt/xchem-fragalysis-2/maxwin/BulkDock/OUTPUTS/openbind_a71ev2a_c1_knitwork_impure_1B07QS4.sdf', '/opt/xchem-fragalysis-2/maxwin/BulkDock/OUTPUTS/openbind_a71ev2a_c1_knitwork_impure_1B07X5R.sdf', '/opt/xchem-fragalysis-2/maxwin/openbind-hippo/a71ev2a/openbind_a71ev2a_c1_scaffold_products.sdf', '/opt/xchem-fragalysis-2/maxwin/openbind-hippo/a71ev2a/cycle_01/bulkdock/openbind_a71ev2a_c1_scaffold_products.sdf', '/opt/xchem-fragalysis-2/maxwin/openbind-hippo/a71ev2a/cycle_01/bulkdock/openbind_a71ev2a_c1_scaffolds.sdf']

>  <fragmenstein_runtime>  (1209) 
7.587363

$$$$
C4732-P405
     RDKit          3D

  9  9  0  0  0  0  0  0  0  0999 V2000
    7.1528   16.0242   24.8052 C   0  0  0  0  0  0  0  0  0  0  0  0
    7.0962   14.5134   24.9522 C   0  0  0  0  0  0  0  0  0  0  0  0
    8.3839   13.8548   24.5232 C   0  0  0  0  0  0  0  0  0  0  0  0
    9.4094   14.4456   24.2048 O   0  0  0  0  0  0  0  0  0  0  0  0
    8.4175   12.3465   24.5565 C   0  0  0  0  0  0  0  0  0  0  0  0
    7.4106   11.6188   24.9441 N   0  0  0  0  0  0  0  0  0  0  0  0
    7.9635   10.2534   25.0033 C   0  0  0  0  0  0  0  0  0  0  0  0
    9.1794   10.2278   24.1045 C   0  0  0  0  0  0  0  0  0  0  0  0
    9.6821   11.6475   24.1873 C   0  0  0  0  0  0  0  0  0  0  0  0
  1  2  1  0
  2  3  1  0
  3  4  2  0
  3  5  1  0
  5  6  2  0
  6  7  1  0
  7  8  1  0
  8  9  1  0
  9  5  1  0
M  END
>  <ref_pdb>  (1210) 
A4570a

>  <subsites>  (1210) 
1 - Active Site

>  <HIPPO Compound ID>  (1210) 
4732

>  <energy_score>  (1210) 
-26.358895

>  <fragmenstein_mode>  (1210) 
expansion

>  <scratch_subdir>  (1210) 
/opt/xchem-fragalysis-2/maxwin/BulkDock/SCRATCH/512229/C4732-P405

>  <smiles>  (1210) 
CCC(=O)C1=NCCC1

>  <alias>  (1210) 
C4732-P405

>  <ref_mols>  (1210) 
A4570a,A0875a

>  <inspiration_score>  (1210) 
None

>  <tags>  (1210) 
BulkDock Fragalysis export,fragmenstein_placed,openbind_a71ev2a_c1_knitwork_impure,openbind_a71ev2a_c1_scaffolds

>  <fragmenstein_outcome>  (1210) 
acceptable

>  <fragmenstein_error>  (1210) 


>  <distance_score>  (1210) 
0.948248

>  <inchikey>  (1210) 
OVNCGQSYSSYBPO-UHFFFAOYSA-N

>  <name>  (1210) 
C4732-P405

>  <HIPPO Pose ID>  (1210) 
494742

>  <Energy>  (1210) 
30.147335

>  <exports>  (1210) 
['/opt/xchem-fragalysis-2/maxwin/BulkDock/OUTPUTS/openbind_a71ev2a_c1_knitwork_impure_165VXJF.sdf', '/opt/xchem-fragalysis-2/maxwin/BulkDock/OUTPUTS/openbind_a71ev2a_c1_knitwork_impure_1B07QS4.sdf', '/opt/xchem-fragalysis-2/maxwin/BulkDock/OUTPUTS/openbind_a71ev2a_c1_knitwork_impure_1B07X5R.sdf', '/opt/xchem-fragalysis-2/maxwin/openbind-hippo/a71ev2a/openbind_a71ev2a_c1_scaffold_products.sdf', '/opt/xchem-fragalysis-2/maxwin/openbind-hippo/a71ev2a/cycle_01/bulkdock/openbind_a71ev2a_c1_scaffold_products.sdf', '/opt/xchem-fragalysis-2/maxwin/openbind-hippo/a71ev2a/cycle_01/bulkdock/openbind_a71ev2a_c1_scaffolds.sdf']

>  <fragmenstein_runtime>  (1210) 
1.085841

$$$$
C3665-P182
     RDKit          3D

 11 12  0  0  0  0  0  0  0  0999 V2000
    7.4903   10.1492   25.1474 C   0  0  0  0  0  0  0  0  0  0  0  0
    7.1359   11.4607   25.3590 C   0  0  0  0  0  0  0  0  0  0  0  0
    7.8004   12.4436   24.6302 C   0  0  0  0  0  0  0  0  0  0  0  0
    7.3083   13.8051   24.7042 C   0  0  0  0  0  0  0  0  0  0  0  0
    6.8095   14.4639   25.7336 N   0  0  0  0  0  0  0  0  0  0  0  0
    6.3353   15.6241   25.1722 C   0  0  0  0  0  0  0  0  0  0  0  0
    6.5700   15.6220   23.8207 C   0  0  0  0  0  0  0  0  0  0  0  0
    7.2226   14.4689   23.5087 O   0  0  0  0  0  0  0  0  0  0  0  0
    8.8481   12.0770   23.7821 C   0  0  0  0  0  0  0  0  0  0  0  0
    9.1511   10.7326   23.6656 C   0  0  0  0  0  0  0  0  0  0  0  0
    8.4781    9.7637   24.3184 N   0  0  0  0  0  0  0  0  0  0  0  0
  1  2  2  0
  2  3  1  0
  3  4  1  0
  4  5  2  0
  5  6  1  0
  6  7  2  0
  7  8  1  0
  3  9  2  0
  9 10  1  0
 10 11  2  0
 11  1  1  0
  8  4  1  0
M  END
>  <ref_pdb>  (1211) 
A3435a

>  <subsites>  (1211) 
1 - Active Site

>  <HIPPO Compound ID>  (1211) 
3665

>  <energy_score>  (1211) 
-7.856933

>  <fragmenstein_mode>  (1211) 
expansion

>  <scratch_subdir>  (1211) 
/opt/xchem-fragalysis-2/maxwin/BulkDock/SCRATCH/512229/C3665-P182

>  <smiles>  (1211) 
c1cc(-c2ncco2)ccn1

>  <alias>  (1211) 
C3665-P182

>  <ref_mols>  (1211) 
A0556a,A3435a

>  <inspiration_score>  (1211) 
None

>  <tags>  (1211) 
BulkDock Fragalysis export,fragmenstein_placed,openbind_a71ev2a_c1_knitwork_impure,openbind_a71ev2a_c1_scaffolds

>  <fragmenstein_outcome>  (1211) 
acceptable

>  <fragmenstein_error>  (1211) 


>  <distance_score>  (1211) 
0.83502

>  <inchikey>  (1211) 
GXLZMUSLZZNHNL-UHFFFAOYSA-N

>  <name>  (1211) 
C3665-P182

>  <HIPPO Pose ID>  (1211) 
494896

>  <Energy>  (1211) 
19.265044

>  <exports>  (1211) 
['/opt/xchem-fragalysis-2/maxwin/BulkDock/OUTPUTS/openbind_a71ev2a_c1_knitwork_impure_165VXJF.sdf', '/opt/xchem-fragalysis-2/maxwin/BulkDock/OUTPUTS/openbind_a71ev2a_c1_knitwork_impure_1B07QS4.sdf', '/opt/xchem-fragalysis-2/maxwin/BulkDock/OUTPUTS/openbind_a71ev2a_c1_knitwork_impure_1B07X5R.sdf', '/opt/xchem-fragalysis-2/maxwin/openbind-hippo/a71ev2a/openbind_a71ev2a_c1_scaffold_products.sdf', '/opt/xchem-fragalysis-2/maxwin/openbind-hippo/a71ev2a/cycle_01/bulkdock/openbind_a71ev2a_c1_scaffold_products.sdf', '/opt/xchem-fragalysis-2/maxwin/openbind-hippo/a71ev2a/cycle_01/bulkdock/openbind_a71ev2a_c1_scaffolds.sdf']

>  <fragmenstein_runtime>  (1211) 
2.486205

$$$$
C16361-P182
     RDKit          3D

 21 23  0  0  0  0  0  0  0  0999 V2000
    9.8870   14.0495   25.2942 O   0  0  0  0  0  0  0  0  0  0  0  0
    9.9303   13.3239   24.3843 C   0  0  0  0  0  0  0  0  0  0  0  0
   10.8889   13.2840   23.1912 N   0  0  0  0  0  0  0  0  0  0  0  0
   11.9419   14.1832   22.8092 C   0  0  0  0  0  0  0  0  0  0  0  0
   11.9852   14.4779   21.3190 C   0  0  0  0  0  0  0  0  0  0  0  0
   10.7556   15.1233   20.7768 C   0  0  0  0  0  0  0  0  0  0  0  0
   10.5735   15.6038   19.4651 C   0  0  0  0  0  0  0  0  0  0  0  0
    9.4826   16.4265   19.5598 C   0  0  0  0  0  0  0  0  0  0  0  0
    8.9896   16.2793   20.8187 N   0  0  0  0  0  0  0  0  0  0  0  0
    9.6926   15.3995   21.5413 N   0  0  0  0  0  0  0  0  0  0  0  0
    8.9573   12.1831   24.3907 C   0  0  0  0  0  0  0  0  0  0  0  0
    9.2563   10.9353   23.8463 C   0  0  0  0  0  0  0  0  0  0  0  0
    8.4626    9.8696   24.2144 C   0  0  0  0  0  0  0  0  0  0  0  0
    7.4132    9.9731   25.0610 N   0  0  0  0  0  0  0  0  0  0  0  0
    7.0895   11.2081   25.5223 C   0  0  0  0  0  0  0  0  0  0  0  0
    6.0197   11.3072   26.4512 N   0  0  0  0  0  0  0  0  0  0  0  0
    5.3580   12.4205   26.9127 C   0  0  0  0  0  0  0  0  0  0  0  0
    4.4220   11.9545   27.8118 C   0  0  0  0  0  0  0  0  0  0  0  0
    4.5057   10.6040   27.9521 N   0  0  0  0  0  0  0  0  0  0  0  0
    5.4518   10.2494   27.1140 C   0  0  0  0  0  0  0  0  0  0  0  0
    7.8160   12.3363   25.1866 C   0  0  0  0  0  0  0  0  0  0  0  0
  1  2  2  0
  2  3  1  0
  3  4  1  0
  4  5  1  0
  5  6  1  0
  6  7  1  0
  7  8  2  0
  8  9  1  0
  9 10  1  0
  2 11  1  0
 11 12  2  0
 12 13  1  0
 13 14  2  0
 14 15  1  0
 15 16  1  0
 16 17  1  0
 17 18  2  0
 18 19  1  0
 19 20  2  0
 15 21  2  0
 10  6  2  0
 21 11  1  0
 20 16  1  0
M  END
>  <ref_pdb>  (1212) 
A3435a

>  <subsites>  (1212) 
1 - Active Site

>  <HIPPO Compound ID>  (1212) 
16361

>  <energy_score>  (1212) 
-16.710466

>  <fragmenstein_mode>  (1212) 
expansion

>  <scratch_subdir>  (1212) 
/opt/xchem-fragalysis-2/maxwin/BulkDock/SCRATCH/512229/C16361-P182

>  <smiles>  (1212) 
O=C(NCCc1cc[nH]n1)c1ccnc(-n2ccnc2)c1

>  <alias>  (1212) 
C16361-P182

>  <ref_mols>  (1212) 
A0556a,A3435a

>  <inspiration_score>  (1212) 
None

>  <tags>  (1212) 
BulkDock Fragalysis export,fragmenstein_placed,openbind_a71ev2a_c1_knitwork_impure,openbind_a71ev2a_c1_scaffolds

>  <fragmenstein_outcome>  (1212) 
acceptable

>  <fragmenstein_error>  (1212) 


>  <distance_score>  (1212) 
0.920213

>  <inchikey>  (1212) 
ZZPZYEPSKIPXIU-UHFFFAOYSA-N

>  <name>  (1212) 
C16361-P182

>  <HIPPO Pose ID>  (1212) 
494946

>  <Energy>  (1212) 
55.214786

>  <exports>  (1212) 
['/opt/xchem-fragalysis-2/maxwin/BulkDock/OUTPUTS/openbind_a71ev2a_c1_knitwork_impure_165VXJF.sdf', '/opt/xchem-fragalysis-2/maxwin/BulkDock/OUTPUTS/openbind_a71ev2a_c1_knitwork_impure_1B07QS4.sdf', '/opt/xchem-fragalysis-2/maxwin/BulkDock/OUTPUTS/openbind_a71ev2a_c1_knitwork_impure_1B07X5R.sdf', '/opt/xchem-fragalysis-2/maxwin/openbind-hippo/a71ev2a/openbind_a71ev2a_c1_scaffold_products.sdf', '/opt/xchem-fragalysis-2/maxwin/openbind-hippo/a71ev2a/cycle_01/bulkdock/openbind_a71ev2a_c1_scaffold_products.sdf', '/opt/xchem-fragalysis-2/maxwin/openbind-hippo/a71ev2a/cycle_01/bulkdock/openbind_a71ev2a_c1_scaffolds.sdf']

>  <fragmenstein_runtime>  (1212) 
4.160039

$$$$
C2086-P207
     RDKit          3D

 15 17  0  0  0  0  0  0  0  0999 V2000
   11.5293   15.2245   21.4742 C   0  0  0  0  0  0  0  0  0  0  0  0
   11.7409   14.7415   22.9030 C   0  0  0  0  0  0  0  0  0  0  0  0
   10.7878   15.4481   23.8613 C   0  0  0  0  0  0  0  0  0  0  0  0
    9.3282   15.4577   23.3881 C   0  0  2  0  0  0  0  0  0  0  0  0
    8.5546   14.2443   23.8381 C   0  0  0  0  0  0  0  0  0  0  0  0
    7.4941   14.2775   24.6298 N   0  0  0  0  0  0  0  0  0  0  0  0
    7.1536   12.9783   24.8533 C   0  0  0  0  0  0  0  0  0  0  0  0
    8.0284   12.1276   24.2290 C   0  0  0  0  0  0  0  0  0  0  0  0
    8.8930   12.9378   23.5427 N   0  0  0  0  0  0  0  0  0  0  0  0
    8.0334   10.6542   24.3128 C   0  0  0  0  0  0  0  0  0  0  0  0
    6.8601   10.1336   25.1614 C   0  0  0  0  0  0  0  0  0  0  0  0
    6.2204   11.1073   26.1678 C   0  0  0  0  0  0  0  0  0  0  0  0
    6.0097   12.5433   25.6792 C   0  0  0  0  0  0  0  0  0  0  0  0
    9.1804   15.7814   21.9732 N   0  0  0  0  0  0  0  0  0  0  0  0
   10.0684   15.0818   21.0607 C   0  0  0  0  0  0  0  0  0  0  0  0
  1  2  1  0
  2  3  1  0
  3  4  1  0
  4  5  1  6
  5  6  2  0
  6  7  1  0
  7  8  2  0
  8  9  1  0
  8 10  1  0
 10 11  1  0
 11 12  1  0
 12 13  1  0
  4 14  1  0
 14 15  1  0
 15  1  1  0
  9  5  1  0
 13  7  1  0
M  END
>  <ref_pdb>  (1213) 
A3706a

>  <subsites>  (1213) 
1 - Active Site

>  <HIPPO Compound ID>  (1213) 
2086

>  <energy_score>  (1213) 
-31.681633

>  <fragmenstein_mode>  (1213) 
expansion

>  <scratch_subdir>  (1213) 
/opt/xchem-fragalysis-2/maxwin/BulkDock/SCRATCH/512229/C2086-P207

>  <smiles>  (1213) 
C1CC[C@H](c2nc3c([nH]2)CCCC3)NC1

>  <alias>  (1213) 
C2086-P207

>  <ref_mols>  (1213) 
A3371a,A3706a

>  <inspiration_score>  (1213) 
None

>  <tags>  (1213) 
BulkDock Fragalysis export,fragmenstein_placed,openbind_a71ev2a_c1_knitwork_impure,openbind_a71ev2a_c1_scaffolds

>  <fragmenstein_outcome>  (1213) 
acceptable

>  <fragmenstein_error>  (1213) 


>  <distance_score>  (1213) 
0.839814

>  <inchikey>  (1213) 
SKVGOPZVGGOSKI-UHFFFAOYSA-N

>  <name>  (1213) 
C2086-P207

>  <HIPPO Pose ID>  (1213) 
495159

>  <Energy>  (1213) 
14.625461

>  <exports>  (1213) 
['/opt/xchem-fragalysis-2/maxwin/BulkDock/OUTPUTS/openbind_a71ev2a_c1_knitwork_impure_165VXJF.sdf', '/opt/xchem-fragalysis-2/maxwin/BulkDock/OUTPUTS/openbind_a71ev2a_c1_knitwork_impure_1B07QS4.sdf', '/opt/xchem-fragalysis-2/maxwin/BulkDock/OUTPUTS/openbind_a71ev2a_c1_knitwork_impure_1B07X5R.sdf', '/opt/xchem-fragalysis-2/maxwin/openbind-hippo/a71ev2a/openbind_a71ev2a_c1_scaffold_products.sdf', '/opt/xchem-fragalysis-2/maxwin/openbind-hippo/a71ev2a/cycle_01/bulkdock/openbind_a71ev2a_c1_scaffold_products.sdf', '/opt/xchem-fragalysis-2/maxwin/openbind-hippo/a71ev2a/cycle_01/bulkdock/openbind_a71ev2a_c1_scaffolds.sdf']

>  <fragmenstein_runtime>  (1213) 
75.474739

$$$$
C8142-P190
     RDKit          3D

 12 12  0  0  0  0  0  0  0  0999 V2000
    7.5812   14.8562   26.7742 C   0  0  0  0  0  0  0  0  0  0  0  0
    7.0631   14.4627   25.4227 C   0  0  0  0  0  0  0  0  0  0  0  0
    7.4709   15.0267   24.4050 O   0  0  0  0  0  0  0  0  0  0  0  0
    5.9608   13.4348   25.3402 C   0  0  0  0  0  0  0  0  0  0  0  0
    6.3260   11.9860   25.6766 C   0  0  2  0  0  0  0  0  0  0  0  0
    6.3782   11.8438   27.1014 O   0  0  0  0  0  0  0  0  0  0  0  0
    7.5802   11.3309   25.0273 C   0  0  1  0  0  0  0  0  0  0  0  0
    7.3384    9.8255   24.8378 C   0  0  0  0  0  0  0  0  0  0  0  0
    8.2811    9.1082   23.8817 C   0  0  0  0  0  0  0  0  0  0  0  0
    9.4081    9.9497   23.3393 C   0  0  0  0  0  0  0  0  0  0  0  0
    8.9578   11.2440   22.8953 N   0  0  0  0  0  0  0  0  0  0  0  0
    8.0911   12.0145   23.7596 C   0  0  0  0  0  0  0  0  0  0  0  0
  1  2  1  0
  2  3  2  0
  2  4  1  0
  4  5  1  0
  5  6  1  1
  5  7  1  0
  7  8  1  6
  8  9  1  0
  9 10  1  0
 10 11  1  0
 11 12  1  0
 12  7  1  0
M  END
>  <ref_pdb>  (1214) 
A3509a

>  <subsites>  (1214) 
1 - Active Site

>  <HIPPO Compound ID>  (1214) 
8142

>  <energy_score>  (1214) 
-21.596587

>  <fragmenstein_mode>  (1214) 
expansion

>  <scratch_subdir>  (1214) 
/opt/xchem-fragalysis-2/maxwin/BulkDock/SCRATCH/512229/C8142-P190

>  <smiles>  (1214) 
CC(=O)C[C@H](O)[C@H]1CCCNC1

>  <alias>  (1214) 
C8142-P190

>  <ref_mols>  (1214) 
A0719a,A3509a

>  <inspiration_score>  (1214) 
None

>  <tags>  (1214) 
BulkDock Fragalysis export,fragmenstein_placed,openbind_a71ev2a_c1_knitwork_impure,openbind_a71ev2a_c1_scaffolds

>  <fragmenstein_outcome>  (1214) 
acceptable

>  <fragmenstein_error>  (1214) 


>  <distance_score>  (1214) 
0.926577

>  <inchikey>  (1214) 
UZXQDRCHBFTVHG-UHFFFAOYSA-N

>  <name>  (1214) 
C8142-P190

>  <HIPPO Pose ID>  (1214) 
495323

>  <Energy>  (1214) 
24.4507

>  <exports>  (1214) 
['/opt/xchem-fragalysis-2/maxwin/BulkDock/OUTPUTS/openbind_a71ev2a_c1_knitwork_impure_165VXJF.sdf', '/opt/xchem-fragalysis-2/maxwin/BulkDock/OUTPUTS/openbind_a71ev2a_c1_knitwork_impure_1B07QS4.sdf', '/opt/xchem-fragalysis-2/maxwin/BulkDock/OUTPUTS/openbind_a71ev2a_c1_knitwork_impure_1B07X5R.sdf', '/opt/xchem-fragalysis-2/maxwin/openbind-hippo/a71ev2a/openbind_a71ev2a_c1_scaffold_products.sdf', '/opt/xchem-fragalysis-2/maxwin/openbind-hippo/a71ev2a/cycle_01/bulkdock/openbind_a71ev2a_c1_scaffold_products.sdf', '/opt/xchem-fragalysis-2/maxwin/openbind-hippo/a71ev2a/cycle_01/bulkdock/openbind_a71ev2a_c1_scaffolds.sdf']

>  <fragmenstein_runtime>  (1214) 
5.091833

$$$$
