ver_1.2
     RDKit          3D

 10 11  0  0  0  0  0  0  0  0999 V2000
    2.5833    0.0866   -0.5233 C   0  0  0  0  0  0  0  0  0  0  0  0
    1.5238   -0.7966   -0.7499 C   0  0  0  0  0  0  0  0  0  0  0  0
    0.5101   -0.4144    0.0461 N   0  0  0  0  0  0  0  0  0  0  0  0
   -0.7756   -1.0466    0.1340 C   0  0  0  0  0  0  0  0  0  0  0  0
   -1.6599   -0.7585   -1.0673 C   0  0  0  0  0  0  0  0  0  0  0  0
   -1.9627    0.7119   -0.8006 C   0  0  0  0  0  0  0  0  0  0  0  0
   -1.7876    0.9358    0.6045 N   0  0  0  0  0  0  0  0  0  0  0  0
   -1.5775   -0.3513    1.2404 C   0  0  0  0  0  0  0  0  0  0  0  0
    0.9464    0.6605    0.7264 C   0  0  0  0  0  0  0  0  0  0  0  0
    2.1998    0.9725    0.3896 N   0  0  0  0  0  0  0  0  0  0  0  0
  1  2  2  0
  2  3  1  0
  3  4  1  0
  4  5  1  0
  5  6  1  0
  6  7  1  0
  7  8  1  0
  3  9  1  0
  9 10  2  0
 10  1  1  0
  8  4  1  0
M  END
>  <ref_url>  (1) 
https://github.com/mwinokan/BulkDock

>  <submitter_name>  (1) 
Max Winokan

>  <submitter_email>  (1) 
max.winokan@diamond.ac.uk

>  <submitter_institution>  (1) 
DLS

>  <generation_date>  (1) 
2025-09-02

>  <method>  (1) 
openbind_a71ev2a_c1_knitwork_impure

>  <HIPPO Pose ID>  (1) 
HIPPO Pose ID

>  <HIPPO Compound ID>  (1) 
HIPPO Compound ID

>  <smiles>  (1) 
smiles

>  <ref_pdb>  (1) 
protein reference

>  <ref_mols>  (1) 
fragment inspirations

>  <alias>  (1) 
alias

>  <distance_score>  (1) 
distance_score

>  <energy_score>  (1) 
energy_score

>  <subsites>  (1) 
subsites

>  <tags>  (1) 
tags

>  <placement_batch>  (1) 
BulkDock placement batch

$$$$
C2394-P339
     RDKit          3D

 13 13  0  0  0  0  0  0  0  0999 V2000
   11.2672   14.9832   23.6376 C   0  0  0  0  0  0  0  0  0  0  0  0
   10.0124   14.5434   22.8941 C   0  0  0  0  0  0  0  0  0  0  0  0
    9.0135   13.7069   23.7335 C   0  0  0  0  0  0  0  0  0  0  0  0
    7.6898   13.6972   22.9574 C   0  0  0  0  0  0  0  0  0  0  0  0
    9.5376   12.2909   24.0046 C   0  0  0  0  0  0  0  0  0  0  0  0
    8.8846   14.3980   24.9699 O   0  0  0  0  0  0  0  0  0  0  0  0
    7.8167   14.0870   25.8504 C   0  0  0  0  0  0  0  0  0  0  0  0
    7.5714   15.3442   26.6954 C   0  0  1  0  0  0  0  0  0  0  0  0
    8.8163   15.7032   27.5227 C   0  0  0  0  0  0  0  0  0  0  0  0
    8.6308   17.0384   28.2324 C   0  0  0  0  0  0  0  0  0  0  0  0
    8.2109   18.1317   27.2552 C   0  0  0  0  0  0  0  0  0  0  0  0
    6.9906   17.7666   26.5420 N   0  0  0  0  0  0  0  0  0  0  0  0
    7.1755   16.5258   25.7847 C   0  0  0  0  0  0  0  0  0  0  0  0
  1  2  1  0
  2  3  1  0
  3  4  1  0
  3  5  1  0
  3  6  1  0
  6  7  1  0
  8  7  1  6
  8  9  1  0
  9 10  1  0
 10 11  1  0
 11 12  1  0
 12 13  1  0
 13  8  1  0
M  END
>  <inchikey>  (1) 
WHQNOBWFVDSYOK-UHFFFAOYSA-N

>  <energy_score>  (1) 
-31.027332

>  <subsites>  (1) 
1 - Active Site

>  <alias>  (1) 
C2394-P339

>  <tags>  (1) 
openbind_a71ev2a_c1_scaffolds,BulkDock Fragalysis export,openbind_a71ev2a_c1_knitwork_impure,fragmenstein_placed

>  <distance_score>  (1) 
0.90478

>  <placement_batch>  (1) 
openbind_a71ev2a_c1_knitwork_impure

>  <name>  (1) 
C2394-P339

>  <ref_mols>  (1) 
A1775a,A4237b

>  <smiles>  (1) 
CCC(C)(C)OC[C@H]1CCCNC1

>  <HIPPO Compound ID>  (1) 
1851

>  <HIPPO Pose ID>  (1) 
327857

>  <ref_pdb>  (1) 
A5036a

$$$$
C2397-P339
     RDKit          3D

 15 15  0  0  0  0  0  0  0  0999 V2000
   10.6169   15.6362   19.4209 C   0  0  0  0  0  0  0  0  0  0  0  0
   10.5536   15.7895   20.9434 C   0  0  0  0  0  0  0  0  0  0  0  0
   11.9395   15.5765   21.5447 C   0  0  0  0  0  0  0  0  0  0  0  0
    9.4914   14.8369   21.5104 C   0  0  0  0  0  0  0  0  0  0  0  0
    9.5111   14.6567   23.0225 C   0  0  0  0  0  0  0  0  0  0  0  0
    8.4499   13.7627   23.3735 O   0  0  0  0  0  0  0  0  0  0  0  0
    8.4855   13.3662   24.7474 C   0  0  0  0  0  0  0  0  0  0  0  0
    7.1869   13.7874   25.4626 C   0  0  1  0  0  0  0  0  0  0  0  0
    6.7267   12.6860   26.4317 C   0  0  0  0  0  0  0  0  0  0  0  0
    7.2568   15.1646   26.1894 C   0  0  1  0  0  0  0  0  0  0  0  0
    8.3184   15.2529   27.3050 C   0  0  0  0  0  0  0  0  0  0  0  0
    8.3107   16.6287   27.9755 C   0  0  0  0  0  0  0  0  0  0  0  0
    8.3971   17.7469   26.9431 C   0  0  0  0  0  0  0  0  0  0  0  0
    7.3534   17.5681   25.8449 C   0  0  0  0  0  0  0  0  0  0  0  0
    7.4856   16.2495   25.2322 N   0  0  0  0  0  0  0  0  0  0  0  0
  1  2  1  0
  2  3  1  0
  2  4  1  0
  4  5  1  0
  5  6  1  0
  6  7  1  0
  7  8  1  0
  8  9  1  1
  8 10  1  0
 10 11  1  1
 11 12  1  0
 12 13  1  0
 13 14  1  0
 14 15  1  0
 15 10  1  0
M  END
>  <inchikey>  (2) 
QHQMGDZLEKICDZ-UHFFFAOYSA-N

>  <energy_score>  (2) 
-34.01571

>  <subsites>  (2) 
1 - Active Site

>  <alias>  (2) 
C2397-P339

>  <tags>  (2) 
openbind_a71ev2a_c1_scaffolds,BulkDock Fragalysis export,openbind_a71ev2a_c1_knitwork_impure,fragmenstein_placed

>  <distance_score>  (2) 
0.795322

>  <placement_batch>  (2) 
openbind_a71ev2a_c1_knitwork_impure

>  <name>  (2) 
C2397-P339

>  <ref_mols>  (2) 
A1775a,A4237b

>  <smiles>  (2) 
CC(C)CCOC[C@@H](C)[C@H]1CCCCN1

>  <HIPPO Compound ID>  (2) 
8070

>  <HIPPO Pose ID>  (2) 
327859

>  <ref_pdb>  (2) 
A5036a

$$$$
C2399-P339
     RDKit          3D

 15 15  0  0  0  0  0  0  0  0999 V2000
    8.9998   11.9507   24.2905 C   0  0  0  0  0  0  0  0  0  0  0  0
    8.2162   13.0407   24.4493 C   0  0  0  0  0  0  0  0  0  0  0  0
    7.8444   13.8878   23.2757 C   0  0  0  0  0  0  0  0  0  0  0  0
    8.8205   14.7766   22.9757 F   0  0  0  0  0  0  0  0  0  0  0  0
    7.6330   13.1352   22.1690 F   0  0  0  0  0  0  0  0  0  0  0  0
    6.6914   14.5741   23.4537 F   0  0  0  0  0  0  0  0  0  0  0  0
    7.6732   13.4366   25.8153 C   0  0  1  0  0  0  0  0  0  0  0  0
    6.1615   13.2401   25.9524 C   0  0  0  0  0  0  0  0  0  0  0  0
    8.1787   12.5028   26.6998 F   0  0  0  0  0  0  0  0  0  0  0  0
    8.1998   14.8471   26.2933 C   0  0  2  0  0  0  0  0  0  0  0  0
    8.0994   15.0192   27.8209 C   0  0  0  0  0  0  0  0  0  0  0  0
    8.6672   16.3696   28.2610 C   0  0  0  0  0  0  0  0  0  0  0  0
    7.9829   17.5208   27.5341 C   0  0  0  0  0  0  0  0  0  0  0  0
    8.1071   17.3596   26.0941 N   0  0  0  0  0  0  0  0  0  0  0  0
    7.5429   16.0850   25.6305 C   0  0  0  0  0  0  0  0  0  0  0  0
  1  2  2  0
  2  3  1  0
  3  4  1  0
  3  5  1  0
  3  6  1  0
  2  7  1  0
  7  8  1  6
  7  9  1  0
  7 10  1  0
 10 11  1  1
 11 12  1  0
 12 13  1  0
 13 14  1  0
 14 15  1  0
 15 10  1  0
M  END
>  <inchikey>  (3) 
ORSASUAYDTUOGY-UHFFFAOYSA-N

>  <energy_score>  (3) 
-30.279081

>  <subsites>  (3) 
1 - Active Site

>  <alias>  (3) 
C2399-P339

>  <tags>  (3) 
openbind_a71ev2a_c1_scaffolds,BulkDock Fragalysis export,openbind_a71ev2a_c1_knitwork_impure,fragmenstein_placed

>  <distance_score>  (3) 
0.918381

>  <placement_batch>  (3) 
openbind_a71ev2a_c1_knitwork_impure

>  <name>  (3) 
C2399-P339

>  <ref_mols>  (3) 
A1775a,A4237b

>  <smiles>  (3) 
C=C(C(F)(F)F)[C@@](C)(F)[C@@H]1CCCNC1

>  <HIPPO Compound ID>  (3) 
19827

>  <HIPPO Pose ID>  (3) 
327861

>  <ref_pdb>  (3) 
A5036a

$$$$
C2410-P339
     RDKit          3D

 14 14  0  0  0  0  0  0  0  0999 V2000
   10.1978   15.8103   23.5286 C   0  0  0  0  0  0  0  0  0  0  0  0
    9.6533   14.5636   22.8667 C   0  0  0  0  0  0  0  0  0  0  0  0
    9.2803   14.8806   21.5977 F   0  0  0  0  0  0  0  0  0  0  0  0
   10.6609   13.6574   22.7583 F   0  0  0  0  0  0  0  0  0  0  0  0
    8.4707   13.9041   23.5708 C   0  0  0  0  0  0  0  0  0  0  0  0
    8.8067   13.3531   24.9638 C   0  0  0  0  0  0  0  0  0  0  0  0
    7.7485   13.5781   26.0536 C   0  0  2  0  0  0  0  0  0  0  0  0
    6.5440   13.1075   25.6249 F   0  0  0  0  0  0  0  0  0  0  0  0
    7.5785   15.0207   26.6046 C   0  0  1  0  0  0  0  0  0  0  0  0
    8.8254   15.4601   27.3915 C   0  0  0  0  0  0  0  0  0  0  0  0
    8.6587   16.8618   27.9697 C   0  0  0  0  0  0  0  0  0  0  0  0
    8.2611   17.8452   26.8778 C   0  0  0  0  0  0  0  0  0  0  0  0
    7.0444   17.3526   26.1023 C   0  0  0  0  0  0  0  0  0  0  0  0
    7.2630   16.0096   25.5629 N   0  0  0  0  0  0  0  0  0  0  0  0
  1  2  1  0
  2  3  1  0
  2  4  1  0
  2  5  1  0
  5  6  1  0
  6  7  1  0
  7  8  1  6
  7  9  1  0
  9 10  1  6
 10 11  1  0
 11 12  1  0
 12 13  1  0
 13 14  1  0
 14  9  1  0
M  END
>  <inchikey>  (4) 
IZIDSOYGYYEPPV-UHFFFAOYSA-N

>  <energy_score>  (4) 
-32.445708

>  <subsites>  (4) 
1 - Active Site

>  <alias>  (4) 
C2410-P339

>  <tags>  (4) 
openbind_a71ev2a_c1_scaffolds,BulkDock Fragalysis export,openbind_a71ev2a_c1_knitwork_impure,fragmenstein_placed

>  <distance_score>  (4) 
0.890965

>  <placement_batch>  (4) 
openbind_a71ev2a_c1_knitwork_impure

>  <name>  (4) 
C2410-P339

>  <ref_mols>  (4) 
A1775a,A4237b

>  <smiles>  (4) 
CC(F)(F)CC[C@H](F)[C@H]1CCCCN1

>  <HIPPO Compound ID>  (4) 
11207

>  <HIPPO Pose ID>  (4) 
327865

>  <ref_pdb>  (4) 
A5036a

$$$$
C2413-P339
     RDKit          3D

 15 15  0  0  0  0  0  0  0  0999 V2000
    8.8598   11.8184   24.2526 C   0  0  0  0  0  0  0  0  0  0  0  0
    8.1591   12.9575   24.4444 C   0  0  0  0  0  0  0  0  0  0  0  0
    7.9119   13.9221   23.3279 C   0  0  0  0  0  0  0  0  0  0  0  0
    8.9431   14.7893   23.1811 F   0  0  0  0  0  0  0  0  0  0  0  0
    7.7528   13.2806   22.1450 F   0  0  0  0  0  0  0  0  0  0  0  0
    6.7855   14.6561   23.4888 F   0  0  0  0  0  0  0  0  0  0  0  0
    7.6229   13.3370   25.8172 C   0  0  1  0  0  0  0  0  0  0  0  0
    6.1323   13.0406   25.9892 C   0  0  0  0  0  0  0  0  0  0  0  0
    8.2248   12.4840   26.7120 F   0  0  0  0  0  0  0  0  0  0  0  0
    8.0267   14.8273   26.2006 C   0  0  2  0  0  0  0  0  0  0  0  0
    8.2483   15.0313   27.7082 C   0  0  0  0  0  0  0  0  0  0  0  0
    8.7917   16.4355   27.9961 C   0  0  0  0  0  0  0  0  0  0  0  0
    7.8980   17.5105   27.3878 C   0  0  0  0  0  0  0  0  0  0  0  0
    7.5883   17.2177   25.9255 C   0  0  0  0  0  0  0  0  0  0  0  0
    7.0612   15.8623   25.7633 N   0  0  0  0  0  0  0  0  0  0  0  0
  1  2  2  0
  2  3  1  0
  3  4  1  0
  3  5  1  0
  3  6  1  0
  2  7  1  0
  7  8  1  6
  7  9  1  0
  7 10  1  0
 10 11  1  1
 11 12  1  0
 12 13  1  0
 13 14  1  0
 14 15  1  0
 15 10  1  0
M  END
>  <inchikey>  (5) 
DOUSOOUXCFRQSM-UHFFFAOYSA-N

>  <energy_score>  (5) 
-31.518832

>  <subsites>  (5) 
1 - Active Site

>  <alias>  (5) 
C2413-P339

>  <tags>  (5) 
openbind_a71ev2a_c1_scaffolds,BulkDock Fragalysis export,openbind_a71ev2a_c1_knitwork_impure,fragmenstein_placed

>  <distance_score>  (5) 
0.867235

>  <placement_batch>  (5) 
openbind_a71ev2a_c1_knitwork_impure

>  <name>  (5) 
C2413-P339

>  <ref_mols>  (5) 
A1775a,A4237b

>  <smiles>  (5) 
C=C(C(F)(F)F)[C@@](C)(F)[C@@H]1CCCCN1

>  <HIPPO Compound ID>  (5) 
6106

>  <HIPPO Pose ID>  (5) 
327869

>  <ref_pdb>  (5) 
A5036a

$$$$
C2416-P339
     RDKit          3D

 13 13  0  0  0  0  0  0  0  0999 V2000
    9.1696   14.9242   22.6910 C   0  0  0  0  0  0  0  0  0  0  0  0
    8.3325   13.8077   23.3075 C   0  0  0  0  0  0  0  0  0  0  0  0
    8.8375   13.1848   24.6383 C   0  0  0  0  0  0  0  0  0  0  0  0
    8.5450   11.6686   24.6082 C   0  0  0  0  0  0  0  0  0  0  0  0
   10.3522   13.3366   24.8553 C   0  0  0  0  0  0  0  0  0  0  0  0
    8.0497   13.7971   25.8278 C   0  0  0  0  0  0  0  0  0  0  0  0
    7.3010   13.1136   26.5395 O   0  0  0  0  0  0  0  0  0  0  0  0
    8.2347   15.3025   26.0891 C   0  0  2  0  0  0  0  0  0  0  0  0
    8.6626   15.5601   27.5334 C   0  0  0  0  0  0  0  0  0  0  0  0
    8.8489   17.0579   27.7613 C   0  0  0  0  0  0  0  0  0  0  0  0
    7.6000   17.8275   27.3378 C   0  0  0  0  0  0  0  0  0  0  0  0
    7.1417   17.4543   25.9279 C   0  0  0  0  0  0  0  0  0  0  0  0
    6.9874   16.0081   25.7587 N   0  0  0  0  0  0  0  0  0  0  0  0
  1  2  1  0
  2  3  1  0
  3  4  1  0
  3  5  1  0
  3  6  1  0
  6  7  2  0
  8  6  1  1
  8  9  1  0
  9 10  1  0
 10 11  1  0
 11 12  1  0
 12 13  1  0
 13  8  1  0
M  END
>  <inchikey>  (6) 
NWHFPHZJXUAAAQ-UHFFFAOYSA-N

>  <energy_score>  (6) 
-40.923106

>  <subsites>  (6) 
1 - Active Site

>  <alias>  (6) 
C2416-P339

>  <tags>  (6) 
openbind_a71ev2a_c1_scaffolds,BulkDock Fragalysis export,openbind_a71ev2a_c1_knitwork_impure,fragmenstein_placed

>  <distance_score>  (6) 
0.871654

>  <placement_batch>  (6) 
openbind_a71ev2a_c1_knitwork_impure

>  <name>  (6) 
C2416-P339

>  <ref_mols>  (6) 
A1775a,A4237b

>  <smiles>  (6) 
CCC(C)(C)C(=O)[C@@H]1CCCCN1

>  <HIPPO Compound ID>  (6) 
31645

>  <HIPPO Pose ID>  (6) 
327873

>  <ref_pdb>  (6) 
A5036a

$$$$
C7674-P77
     RDKit          3D

 13 14  0  0  0  0  0  0  0  0999 V2000
    5.7332   15.5622   21.9436 N   0  0  0  0  0  0  0  0  0  0  0  0
    7.0761   14.7563   22.5298 S   0  0  0  0  0  0  0  0  0  0  0  0
    8.2165   15.5580   22.1666 O   0  0  0  0  0  0  0  0  0  0  0  0
    6.9473   13.3812   22.1041 O   0  0  0  0  0  0  0  0  0  0  0  0
    6.7682   14.8734   24.2833 C   0  0  0  0  0  0  0  0  0  0  0  0
    7.9859   14.8320   25.1918 C   0  0  0  0  0  0  0  0  0  0  0  0
    9.1970   13.9817   24.8042 C   0  0  0  0  0  0  0  0  0  0  0  0
    9.1277   12.5559   25.0069 N   0  0  0  0  0  0  0  0  0  0  0  0
    9.4335   11.7304   23.8383 C   0  0  0  0  0  0  0  0  0  0  0  0
    8.9140   10.3404   24.2152 C   0  0  0  0  0  0  0  0  0  0  0  0
    7.8490   10.5680   25.2506 C   0  0  2  0  0  0  0  0  0  0  0  0
    6.7633   11.5900   25.1071 C   0  0  0  0  0  0  0  0  0  0  0  0
    8.0245   11.9671   25.7524 C   0  0  2  0  0  0  0  0  0  0  0  0
  1  2  1  0
  2  3  2  0
  2  4  2  0
  2  5  1  0
  5  6  1  0
  6  7  1  0
  7  8  1  0
  8  9  1  0
  9 10  1  0
 11 10  1  6
 11 12  1  0
 13 12  1  6
 13  8  1  0
 13 11  1  0
M  END
>  <inchikey>  (7) 
BKHKIOXROMQUPK-UHFFFAOYSA-N

>  <energy_score>  (7) 
-72.230984

>  <subsites>  (7) 
1 - Active Site

>  <alias>  (7) 
C7674-P77

>  <tags>  (7) 
openbind_a71ev2a_c1_scaffolds,BulkDock Fragalysis export,openbind_a71ev2a_c1_knitwork_impure,fragmenstein_placed

>  <distance_score>  (7) 
0.973576

>  <placement_batch>  (7) 
openbind_a71ev2a_c1_knitwork_impure

>  <name>  (7) 
C7674-P77

>  <ref_mols>  (7) 
A5394b,A0719a

>  <smiles>  (7) 
NS(=O)(=O)CCCN1CC[C@@H]2C[C@@H]21

>  <HIPPO Compound ID>  (7) 
2541

>  <HIPPO Pose ID>  (7) 
327945

>  <ref_pdb>  (7) 
A5036a

$$$$
C5400-P106
     RDKit          3D

 10 11  0  0  0  0  0  0  0  0999 V2000
   10.5114   15.2847   21.4255 C   0  0  0  0  0  0  0  0  0  0  0  0
   11.7852   15.1019   21.7810 C   0  0  0  0  0  0  0  0  0  0  0  0
   11.8584   14.1092   22.8889 C   0  0  0  0  0  0  0  0  0  0  0  0
   10.4868   14.0600   23.4046 N   0  0  0  0  0  0  0  0  0  0  0  0
   10.1090   12.8966   24.1971 C   0  0  2  0  0  0  0  0  0  0  0  0
   10.5528   11.5289   23.6900 C   0  0  0  0  0  0  0  0  0  0  0  0
    9.5899   10.5586   24.3312 C   0  0  0  0  0  0  0  0  0  0  0  0
    8.3253   11.2664   24.3142 N   0  0  0  0  0  0  0  0  0  0  0  0
    8.6123   12.6923   24.5209 C   0  0  0  0  0  0  0  0  0  0  0  0
    9.6125   14.4726   22.2981 C   0  0  0  0  0  0  0  0  0  0  0  0
  1  2  2  0
  2  3  1  0
  3  4  1  0
  5  4  1  6
  5  6  1  0
  6  7  1  0
  7  8  1  0
  8  9  1  0
  4 10  1  0
 10  1  1  0
  9  5  1  0
M  END
>  <inchikey>  (8) 
AGEDTVGYDAKPRV-UHFFFAOYSA-N

>  <energy_score>  (8) 
-21.129274

>  <subsites>  (8) 
1 - Active Site

>  <alias>  (8) 
C5400-P106

>  <tags>  (8) 
openbind_a71ev2a_c1_scaffolds,BulkDock Fragalysis export,openbind_a71ev2a_c1_knitwork_impure,fragmenstein_placed

>  <distance_score>  (8) 
0.974572

>  <placement_batch>  (8) 
openbind_a71ev2a_c1_knitwork_impure

>  <name>  (8) 
C5400-P106

>  <ref_mols>  (8) 
A4855a,A1140a,A4333a,A4708a,A4343a,A4586a

>  <smiles>  (8) 
C1=CCN([C@@H]2CCNC2)C1

>  <HIPPO Compound ID>  (8) 
3778

>  <HIPPO Pose ID>  (8) 
328297

>  <ref_pdb>  (8) 
A5036a

$$$$
C8137-P187
     RDKit          3D

 18 18  0  0  0  0  0  0  0  0999 V2000
   10.8667   15.7154   19.0729 C   0  0  0  0  0  0  0  0  0  0  0  0
   11.2874   15.0061   20.3427 C   0  0  0  0  0  0  0  0  0  0  0  0
   11.6779   15.9578   21.4709 C   0  0  0  0  0  0  0  0  0  0  0  0
   11.5182   15.2718   22.8288 C   0  0  0  0  0  0  0  0  0  0  0  0
   10.4121   15.8652   23.6054 N   0  0  0  0  0  0  0  0  0  0  0  0
   10.7477   16.3056   24.9526 C   0  0  0  0  0  0  0  0  0  0  0  0
    8.8108   15.6899   23.1501 S   0  0  0  0  0  0  0  0  0  0  0  0
    8.7098   15.6134   21.7163 O   0  0  0  0  0  0  0  0  0  0  0  0
    7.9934   16.5851   23.9284 O   0  0  0  0  0  0  0  0  0  0  0  0
    8.5090   14.1260   23.6585 N   0  0  0  0  0  0  0  0  0  0  0  0
    8.6078   13.7055   25.0617 C   0  0  1  0  0  0  0  0  0  0  0  0
    7.9019   14.6560   26.0384 C   0  0  0  0  0  0  0  0  0  0  0  0
    8.1021   12.2509   25.2389 C   0  0  0  0  0  0  0  0  0  0  0  0
    6.6376   12.1161   25.6542 C   0  0  0  0  0  0  0  0  0  0  0  0
    6.3011   10.6757   26.0081 C   0  0  0  0  0  0  0  0  0  0  0  0
    6.7166    9.6860   25.0314 N   0  0  0  0  0  0  0  0  0  0  0  0
    8.0480    9.8645   24.4641 C   0  0  0  0  0  0  0  0  0  0  0  0
    8.4037   11.2999   24.0866 C   0  0  0  0  0  0  0  0  0  0  0  0
  1  2  1  0
  2  3  1  0
  3  4  1  0
  4  5  1  0
  5  6  1  0
  5  7  1  0
  7  8  2  0
  7  9  2  0
  7 10  1  0
 10 11  1  0
 11 12  1  1
 11 13  1  0
 13 14  1  0
 14 15  1  0
 15 16  1  0
 16 17  1  0
 17 18  1  0
 18 13  1  0
M  END
>  <inchikey>  (9) 
YJBQQPKNCOBFQV-UHFFFAOYSA-N

>  <energy_score>  (9) 
-38.91479

>  <subsites>  (9) 
1 - Active Site

>  <alias>  (9) 
C8137-P187

>  <tags>  (9) 
openbind_a71ev2a_c1_scaffolds,BulkDock Fragalysis export,openbind_a71ev2a_c1_knitwork_impure,fragmenstein_placed

>  <distance_score>  (9) 
0.80325

>  <placement_batch>  (9) 
openbind_a71ev2a_c1_knitwork_impure

>  <name>  (9) 
C8137-P187

>  <ref_mols>  (9) 
A3485a,A0719a

>  <smiles>  (9) 
CCCCN(C)S(=O)(=O)N[C@@H](C)C1CCNCC1

>  <HIPPO Compound ID>  (9) 
5948

>  <HIPPO Pose ID>  (9) 
328964

>  <ref_pdb>  (9) 
A5036a

$$$$
C13035-P120
     RDKit          3D

 18 19  0  0  0  0  0  0  0  0999 V2000
    2.9949   12.5523   29.7518 C   0  0  0  0  0  0  0  0  0  0  0  0
    2.8029   11.2616   28.9452 C   0  0  1  0  0  0  0  0  0  0  0  0
    4.0729   10.4074   28.8657 C   0  0  0  0  0  0  0  0  0  0  0  0
    5.2039   11.1885   28.2023 C   0  0  0  0  0  0  0  0  0  0  0  0
    5.6762   12.1198   28.7276 O   0  0  0  0  0  0  0  0  0  0  0  0
    5.5451   10.5193   26.8457 N   0  0  0  0  0  0  0  0  0  0  0  0
    6.4209   10.8922   25.8709 C   0  0  0  0  0  0  0  0  0  0  0  0
    7.0435    9.9902   24.9667 C   0  0  0  0  0  0  0  0  0  0  0  0
    8.0258   10.7327   24.3839 C   0  0  0  0  0  0  0  0  0  0  0  0
    7.7927   12.0054   24.7634 N   0  0  0  0  0  0  0  0  0  0  0  0
    6.9202   12.1326   25.7550 N   0  0  0  0  0  0  0  0  0  0  0  0
    8.7583   12.9682   24.2825 C   0  0  0  0  0  0  0  0  0  0  0  0
    9.8174   12.0676   23.6173 C   0  0  0  0  0  0  0  0  0  0  0  0
    9.2455   10.6086   23.5850 C   0  0  0  0  0  0  0  0  0  0  0  0
    1.6548   10.4799   29.5539 C   0  0  0  0  0  0  0  0  0  0  0  0
    1.8508   10.2282   30.8647 F   0  0  0  0  0  0  0  0  0  0  0  0
    1.4681    9.2971   28.9296 F   0  0  0  0  0  0  0  0  0  0  0  0
    0.5037   11.1774   29.4315 F   0  0  0  0  0  0  0  0  0  0  0  0
  2  1  1  1
  2  3  1  0
  3  4  1  0
  4  5  2  0
  4  6  1  0
  6  7  1  0
  7  8  1  0
  8  9  2  0
  9 10  1  0
 10 11  1  0
 10 12  1  0
 12 13  1  0
 13 14  1  0
  2 15  1  0
 15 16  1  0
 15 17  1  0
 15 18  1  0
 11  7  2  0
 14  9  1  0
M  END
>  <inchikey>  (10) 
NTHBIXDORUIWBD-UHFFFAOYSA-N

>  <energy_score>  (10) 
-7.036237

>  <subsites>  (10) 
1 - Active Site

>  <alias>  (10) 
C13035-P120

>  <tags>  (10) 
openbind_a71ev2a_c1_scaffolds,BulkDock Fragalysis export,openbind_a71ev2a_c1_knitwork_impure,fragmenstein_placed

>  <distance_score>  (10) 
0.906516

>  <placement_batch>  (10) 
openbind_a71ev2a_c1_knitwork_impure

>  <name>  (10) 
C13035-P120

>  <ref_mols>  (10) 
A1445a,A3564a

>  <smiles>  (10) 
C[C@@H](CC(=O)Nc1cc2n(n1)CCC2)C(F)(F)F

>  <HIPPO Compound ID>  (10) 
29671

>  <HIPPO Pose ID>  (10) 
329854

>  <ref_pdb>  (10) 
A5036a

$$$$
C2376-P328
     RDKit          3D

 14 14  0  0  0  0  0  0  0  0999 V2000
   12.0024   15.5517   22.2415 C   0  0  0  0  0  0  0  0  0  0  0  0
   10.9583   15.2764   23.3069 C   0  0  0  0  0  0  0  0  0  0  0  0
    9.6639   14.8342   22.6402 C   0  0  0  0  0  0  0  0  0  0  0  0
    8.4659   14.5742   23.5761 C   0  0  1  0  0  0  0  0  0  0  0  0
    7.2815   14.2576   22.6471 C   0  0  0  0  0  0  0  0  0  0  0  0
    8.7651   13.5092   24.6870 C   0  0  2  0  0  0  0  0  0  0  0  0
    9.2517   14.1976   25.9755 C   0  0  0  0  0  0  0  0  0  0  0  0
    9.8328   12.7533   24.2618 F   0  0  0  0  0  0  0  0  0  0  0  0
    7.6017   12.5109   24.9387 C   0  0  0  0  0  0  0  0  0  0  0  0
    6.5710   12.9731   25.9821 C   0  0  0  0  0  0  0  0  0  0  0  0
    5.5044   11.9177   26.2620 C   0  0  0  0  0  0  0  0  0  0  0  0
    6.0630   10.5936   26.5191 N   0  0  0  0  0  0  0  0  0  0  0  0
    6.9625   10.1647   25.4520 C   0  0  0  0  0  0  0  0  0  0  0  0
    8.1256   11.1196   25.2872 C   0  0  0  0  0  0  0  0  0  0  0  0
  1  2  1  0
  2  3  1  0
  3  4  1  0
  4  5  1  6
  4  6  1  0
  6  7  1  1
  6  8  1  0
  6  9  1  0
  9 10  1  0
 10 11  1  0
 11 12  1  0
 12 13  1  0
 13 14  1  0
 14  9  1  0
M  END
>  <inchikey>  (11) 
IKAMDUKMYVVAKK-UHFFFAOYSA-N

>  <energy_score>  (11) 
-36.05205

>  <subsites>  (11) 
1 - Active Site

>  <alias>  (11) 
C2376-P328

>  <tags>  (11) 
openbind_a71ev2a_c1_scaffolds,BulkDock Fragalysis export,openbind_a71ev2a_c1_knitwork_impure,fragmenstein_placed

>  <distance_score>  (11) 
0.971302

>  <placement_batch>  (11) 
openbind_a71ev2a_c1_knitwork_impure

>  <name>  (11) 
C2376-P328

>  <ref_mols>  (11) 
A4374a,A1779a

>  <smiles>  (11) 
CCC[C@@H](C)[C@](C)(F)C1CCNCC1

>  <HIPPO Compound ID>  (11) 
66949

>  <HIPPO Pose ID>  (11) 
330809

>  <ref_pdb>  (11) 
A5036a

$$$$
C2382-P328
     RDKit          3D

 15 15  0  0  0  0  0  0  0  0999 V2000
    6.6215   10.2692   25.4411 C   0  0  0  0  0  0  0  0  0  0  0  0
    7.6704   11.0926   24.6963 C   0  0  0  0  0  0  0  0  0  0  0  0
    9.0031   10.3699   24.7840 C   0  0  0  0  0  0  0  0  0  0  0  0
    7.6288   12.5165   25.2641 C   0  0  0  0  0  0  0  0  0  0  0  0
    8.7320   13.4990   24.8872 C   0  0  0  0  0  0  0  0  0  0  0  0
    9.4610   13.8831   25.8144 O   0  0  0  0  0  0  0  0  0  0  0  0
    8.9160   13.9298   23.3733 C   0  0  0  0  0  0  0  0  0  0  0  0
    7.5441   13.9271   22.6700 C   0  0  0  0  0  0  0  0  0  0  0  0
    9.8180   12.8742   22.7485 C   0  0  0  0  0  0  0  0  0  0  0  0
    9.5213   15.2940   23.2875 N   0  0  0  0  0  0  0  0  0  0  0  0
   10.9149   15.4268   23.7352 C   0  0  0  0  0  0  0  0  0  0  0  0
   11.9841   15.1691   22.6709 C   0  0  0  0  0  0  0  0  0  0  0  0
   11.7429   15.9523   21.3944 C   0  0  0  0  0  0  0  0  0  0  0  0
   10.3137   15.7781   20.9075 C   0  0  0  0  0  0  0  0  0  0  0  0
    9.3237   16.0602   22.0374 C   0  0  0  0  0  0  0  0  0  0  0  0
  1  2  1  0
  2  3  1  0
  2  4  1  0
  4  5  1  0
  5  6  2  0
  5  7  1  0
  7  8  1  0
  7  9  1  0
  7 10  1  0
 10 11  1  0
 11 12  1  0
 12 13  1  0
 13 14  1  0
 14 15  1  0
 15 10  1  0
M  END
>  <inchikey>  (12) 
CMZOTFOSHDWTHE-UHFFFAOYSA-N

>  <energy_score>  (12) 
-34.982625

>  <subsites>  (12) 
1 - Active Site

>  <alias>  (12) 
C2382-P328

>  <tags>  (12) 
openbind_a71ev2a_c1_scaffolds,BulkDock Fragalysis export,openbind_a71ev2a_c1_knitwork_impure,fragmenstein_placed

>  <distance_score>  (12) 
0.85878

>  <placement_batch>  (12) 
openbind_a71ev2a_c1_knitwork_impure

>  <name>  (12) 
C2382-P328

>  <ref_mols>  (12) 
A4374a,A1779a

>  <smiles>  (12) 
CC(C)CC(=O)C(C)(C)N1CCCCC1

>  <HIPPO Compound ID>  (12) 
66955

>  <HIPPO Pose ID>  (12) 
330821

>  <ref_pdb>  (12) 
A5036a

$$$$
C2399-P328
     RDKit          3D

 15 15  0  0  0  0  0  0  0  0999 V2000
    7.5578   14.2820   22.5104 C   0  0  0  0  0  0  0  0  0  0  0  0
    8.6123   14.2575   23.3563 C   0  0  0  0  0  0  0  0  0  0  0  0
    9.8090   15.1134   23.0450 C   0  0  0  0  0  0  0  0  0  0  0  0
   10.9896   14.5659   23.4153 F   0  0  0  0  0  0  0  0  0  0  0  0
    9.9008   15.4191   21.7261 F   0  0  0  0  0  0  0  0  0  0  0  0
    9.7227   16.2959   23.7113 F   0  0  0  0  0  0  0  0  0  0  0  0
    8.7357   13.4507   24.6518 C   0  0  2  0  0  0  0  0  0  0  0  0
    9.0080   14.3762   25.8545 C   0  0  0  0  0  0  0  0  0  0  0  0
    9.8685   12.6730   24.5667 F   0  0  0  0  0  0  0  0  0  0  0  0
    7.5357   12.4701   24.8890 C   0  0  2  0  0  0  0  0  0  0  0  0
    6.5194   12.9572   25.9370 C   0  0  0  0  0  0  0  0  0  0  0  0
    5.3869   11.9631   26.1457 C   0  0  0  0  0  0  0  0  0  0  0  0
    5.8760   10.5252   26.2468 C   0  0  0  0  0  0  0  0  0  0  0  0
    6.8525   10.1447   25.2425 N   0  0  0  0  0  0  0  0  0  0  0  0
    7.9995   11.0461   25.1952 C   0  0  0  0  0  0  0  0  0  0  0  0
  1  2  2  0
  2  3  1  0
  3  4  1  0
  3  5  1  0
  3  6  1  0
  2  7  1  0
  7  8  1  1
  7  9  1  0
  7 10  1  0
 10 11  1  1
 11 12  1  0
 12 13  1  0
 13 14  1  0
 14 15  1  0
 15 10  1  0
M  END
>  <inchikey>  (13) 
VIWGUSXHUZQJLO-UHFFFAOYSA-N

>  <energy_score>  (13) 
-29.021602

>  <subsites>  (13) 
1 - Active Site

>  <alias>  (13) 
C2399-P328

>  <tags>  (13) 
openbind_a71ev2a_c1_scaffolds,BulkDock Fragalysis export,openbind_a71ev2a_c1_knitwork_impure,fragmenstein_placed

>  <distance_score>  (13) 
0.887994

>  <placement_batch>  (13) 
openbind_a71ev2a_c1_knitwork_impure

>  <name>  (13) 
C2399-P328

>  <ref_mols>  (13) 
A4374a,A1779a

>  <smiles>  (13) 
C=C(C(F)(F)F)[C@](C)(F)[C@@H]1CCCNC1

>  <HIPPO Compound ID>  (13) 
131861

>  <HIPPO Pose ID>  (13) 
330841

>  <ref_pdb>  (13) 
A5036a

$$$$
C2413-P328
     RDKit          3D

 15 15  0  0  0  0  0  0  0  0999 V2000
    7.5336   14.2992   22.6566 C   0  0  0  0  0  0  0  0  0  0  0  0
    8.6377   14.2971   23.4374 C   0  0  0  0  0  0  0  0  0  0  0  0
    9.8033   15.1681   23.0696 C   0  0  0  0  0  0  0  0  0  0  0  0
   11.0074   14.6138   23.3410 F   0  0  0  0  0  0  0  0  0  0  0  0
    9.8048   15.5014   21.7541 F   0  0  0  0  0  0  0  0  0  0  0  0
    9.7588   16.3310   23.7699 F   0  0  0  0  0  0  0  0  0  0  0  0
    8.8623   13.4713   24.7042 C   0  0  2  0  0  0  0  0  0  0  0  0
    9.2291   14.3366   25.9214 C   0  0  0  0  0  0  0  0  0  0  0  0
    9.9704   12.6749   24.4882 F   0  0  0  0  0  0  0  0  0  0  0  0
    7.6850   12.4787   25.0082 C   0  0  2  0  0  0  0  0  0  0  0  0
    6.5831   13.0485   25.9157 C   0  0  0  0  0  0  0  0  0  0  0  0
    5.4286   12.0704   26.1221 C   0  0  0  0  0  0  0  0  0  0  0  0
    5.8741   10.6208   26.2871 C   0  0  0  0  0  0  0  0  0  0  0  0
    7.0636   10.2290   25.4232 C   0  0  0  0  0  0  0  0  0  0  0  0
    8.1415   11.1986   25.5821 N   0  0  0  0  0  0  0  0  0  0  0  0
  1  2  2  0
  2  3  1  0
  3  4  1  0
  3  5  1  0
  3  6  1  0
  2  7  1  0
  7  8  1  1
  7  9  1  0
  7 10  1  0
 10 11  1  1
 11 12  1  0
 12 13  1  0
 13 14  1  0
 14 15  1  0
 15 10  1  0
M  END
>  <inchikey>  (14) 
RXBXROWIEPMBRV-UHFFFAOYSA-N

>  <energy_score>  (14) 
-21.001987

>  <subsites>  (14) 
1 - Active Site

>  <alias>  (14) 
C2413-P328

>  <tags>  (14) 
openbind_a71ev2a_c1_scaffolds,BulkDock Fragalysis export,openbind_a71ev2a_c1_knitwork_impure,fragmenstein_placed

>  <distance_score>  (14) 
0.885237

>  <placement_batch>  (14) 
openbind_a71ev2a_c1_knitwork_impure

>  <name>  (14) 
C2413-P328

>  <ref_mols>  (14) 
A4374a,A1779a

>  <smiles>  (14) 
C=C(C(F)(F)F)[C@](C)(F)[C@@H]1CCCCN1

>  <HIPPO Compound ID>  (14) 
7634

>  <HIPPO Pose ID>  (14) 
330859

>  <ref_pdb>  (14) 
A5036a

$$$$
C6118-P124
     RDKit          3D

 13 15  0  0  0  0  0  0  0  0999 V2000
   10.8357   10.1380   23.1230 C   0  0  0  0  0  0  0  0  0  0  0  0
    9.7459    9.4444   23.6525 C   0  0  0  0  0  0  0  0  0  0  0  0
    8.8225   10.0858   24.4889 C   0  0  0  0  0  0  0  0  0  0  0  0
    8.9817   11.4203   24.7824 C   0  0  0  0  0  0  0  0  0  0  0  0
   10.0847   12.0924   24.2546 C   0  0  0  0  0  0  0  0  0  0  0  0
   11.0156   11.4800   23.4293 C   0  0  0  0  0  0  0  0  0  0  0  0
   10.0998   13.4766   24.7702 C   0  0  0  0  0  0  0  0  0  0  0  0
    8.6924   13.5921   25.3300 C   0  0  0  0  0  0  0  0  0  0  0  0
    8.1690   12.2365   25.6246 N   0  0  0  0  0  0  0  0  0  0  0  0
    6.7359   12.1703   25.7352 C   0  0  0  0  0  0  0  0  0  0  0  0
    6.1974   13.1371   26.8324 C   0  0  0  0  0  0  0  0  0  0  0  0
    5.1441   12.0681   27.1489 C   0  0  0  0  0  0  0  0  0  0  0  0
    6.1457   11.0342   26.5953 C   0  0  0  0  0  0  0  0  0  0  0  0
  1  2  2  0
  2  3  1  0
  3  4  2  0
  4  5  1  0
  5  6  2  0
  5  7  1  0
  7  8  1  0
  8  9  1  0
  9 10  1  0
 10 11  1  0
 11 12  1  0
 12 13  1  0
  6  1  1  0
 13 10  1  0
  9  4  1  0
M  END
>  <inchikey>  (15) 
NXJYTRXEEROFOS-UHFFFAOYSA-N

>  <energy_score>  (15) 
-12.137243

>  <subsites>  (15) 
1 - Active Site

>  <alias>  (15) 
C6118-P124

>  <tags>  (15) 
openbind_a71ev2a_c1_scaffolds,BulkDock Fragalysis export,openbind_a71ev2a_c1_knitwork_impure,fragmenstein_placed

>  <distance_score>  (15) 
0.77327

>  <placement_batch>  (15) 
openbind_a71ev2a_c1_knitwork_impure

>  <name>  (15) 
C6118-P124

>  <ref_mols>  (15) 
A4840a,A4742b,A4374a,A4331b,A1778a

>  <smiles>  (15) 
c1ccc2c(c1)CCN2C1CCC1

>  <HIPPO Compound ID>  (15) 
6248

>  <HIPPO Pose ID>  (15) 
330974

>  <ref_pdb>  (15) 
A5036a

$$$$
C37857-P128
     RDKit          3D

 17 17  0  0  0  0  0  0  0  0999 V2000
   12.6440   16.0344   21.7944 C   0  0  0  0  0  0  0  0  0  0  0  0
   11.7112   15.0429   21.1470 C   0  0  2  0  0  0  0  0  0  0  0  0
   11.6083   13.8097   22.0328 C   0  0  0  0  0  0  0  0  0  0  0  0
   10.5175   13.8790   22.9721 N   0  0  0  0  0  0  0  0  0  0  0  0
    8.9732   13.8933   22.7333 C   0  0  0  0  0  0  0  0  0  0  0  0
    8.3604   13.9289   21.7359 O   0  0  0  0  0  0  0  0  0  0  0  0
    8.2963   13.7367   24.1054 C   0  0  1  0  0  0  0  0  0  0  0  0
    7.0135   14.1987   24.0712 F   0  0  0  0  0  0  0  0  0  0  0  0
    8.3238   12.3267   24.5271 N   0  0  0  0  0  0  0  0  0  0  0  0
    8.9430   11.2597   23.9170 C   0  0  0  0  0  0  0  0  0  0  0  0
    8.4893   10.1314   24.5551 C   0  0  0  0  0  0  0  0  0  0  0  0
    7.6897   10.6186   25.5990 C   0  0  0  0  0  0  0  0  0  0  0  0
    7.7114   11.9514   25.6795 N   0  0  0  0  0  0  0  0  0  0  0  0
   12.1338   14.7094   19.7151 C   0  0  0  0  0  0  0  0  0  0  0  0
   12.6921   15.8813   18.9298 C   0  0  0  0  0  0  0  0  0  0  0  0
   13.0418   13.7165   19.7282 F   0  0  0  0  0  0  0  0  0  0  0  0
   11.0996   14.1636   19.0363 F   0  0  0  0  0  0  0  0  0  0  0  0
  2  1  1  1
  2  3  1  0
  3  4  1  0
  4  5  1  0
  5  6  2  0
  5  7  1  0
  7  8  1  6
  7  9  1  0
  9 10  1  0
 10 11  2  0
 11 12  1  0
 12 13  2  0
  2 14  1  0
 14 15  1  0
 14 16  1  0
 14 17  1  0
 13  9  1  0
M  END
>  <inchikey>  (16) 
PCPXIHBDOBZPNO-UHFFFAOYSA-N

>  <energy_score>  (16) 
-8.668216

>  <subsites>  (16) 
1 - Active Site

>  <alias>  (16) 
C37857-P128

>  <tags>  (16) 
openbind_a71ev2a_c1_scaffolds,BulkDock Fragalysis export,openbind_a71ev2a_c1_knitwork_impure,fragmenstein_placed

>  <distance_score>  (16) 
0.86442

>  <placement_batch>  (16) 
openbind_a71ev2a_c1_knitwork_impure

>  <name>  (16) 
C37857-P128

>  <ref_mols>  (16) 
A2304a,A0719a

>  <smiles>  (16) 
C[C@H](CNC(=O)[C@@H](F)n1cccn1)C(C)(F)F

>  <HIPPO Compound ID>  (16) 
1120

>  <HIPPO Pose ID>  (16) 
331482

>  <ref_pdb>  (16) 
A5036a

$$$$
C6791-P439
     RDKit          3D

 12 13  0  0  0  0  0  0  0  0999 V2000
    9.2544   10.2729   23.7468 C   0  0  0  0  0  0  0  0  0  0  0  0
    9.4846   11.5554   23.2954 C   0  0  0  0  0  0  0  0  0  0  0  0
    8.8113   12.5856   23.9190 C   0  0  0  0  0  0  0  0  0  0  0  0
    9.0690   13.9163   23.6454 N   0  0  0  0  0  0  0  0  0  0  0  0
   10.3449   14.4201   24.1563 C   0  0  0  0  0  0  0  0  0  0  0  0
   11.4714   14.3410   23.1298 C   0  0  0  0  0  0  0  0  0  0  0  0
   11.1198   15.3760   21.6925 S   0  0  0  0  0  0  0  0  0  0  0  0
    9.5085   14.6547   21.2652 C   0  0  0  0  0  0  0  0  0  0  0  0
    8.5263   14.5593   22.4384 C   0  0  0  0  0  0  0  0  0  0  0  0
    7.9424   12.3290   24.9097 N   0  0  0  0  0  0  0  0  0  0  0  0
    7.7889   11.0480   25.2781 C   0  0  0  0  0  0  0  0  0  0  0  0
    8.4110    9.9895   24.7481 N   0  0  0  0  0  0  0  0  0  0  0  0
  1  2  2  0
  2  3  1  0
  3  4  1  0
  4  5  1  0
  5  6  1  0
  6  7  1  0
  7  8  1  0
  8  9  1  0
  3 10  2  0
 10 11  1  0
 11 12  2  0
 12  1  1  0
  9  4  1  0
M  END
>  <inchikey>  (17) 
SAIOTEOVHAXKQN-UHFFFAOYSA-N

>  <energy_score>  (17) 
-6.156808

>  <subsites>  (17) 
1 - Active Site

>  <alias>  (17) 
C6791-P439

>  <tags>  (17) 
openbind_a71ev2a_c1_scaffolds,BulkDock Fragalysis export,openbind_a71ev2a_c1_knitwork_impure,fragmenstein_placed

>  <distance_score>  (17) 
0.793384

>  <placement_batch>  (17) 
openbind_a71ev2a_c1_knitwork_impure

>  <name>  (17) 
C6791-P439

>  <ref_mols>  (17) 
A4706a,A1068a

>  <smiles>  (17) 
c1cc(N2CCSCC2)ncn1

>  <HIPPO Compound ID>  (17) 
686

>  <HIPPO Pose ID>  (17) 
331793

>  <ref_pdb>  (17) 
A5036a

$$$$
C4581-P20
     RDKit          3D

 16 17  0  0  0  0  0  0  0  0999 V2000
   14.7501   24.8009   19.2346 C   0  0  0  0  0  0  0  0  0  0  0  0
   14.3615   24.3023   20.5433 N   0  0  0  0  0  0  0  0  0  0  0  0
   13.5467   25.0818   21.3375 C   0  0  0  0  0  0  0  0  0  0  0  0
   13.1758   24.6783   22.5583 C   0  0  0  0  0  0  0  0  0  0  0  0
   13.6120   23.4051   23.0999 C   0  0  0  0  0  0  0  0  0  0  0  0
   13.2009   23.0132   24.3732 N   0  0  0  0  0  0  0  0  0  0  0  0
   11.7951   22.9338   24.8418 C   0  0  2  0  0  0  0  0  0  0  0  0
   11.3667   24.2478   25.5009 C   0  0  0  0  0  0  0  0  0  0  0  0
    9.8607   24.4965   25.4402 C   0  0  0  0  0  0  0  0  0  0  0  0
    8.9577   23.3210   25.8017 C   0  0  0  0  0  0  0  0  0  0  0  0
    9.4913   22.4318   26.9100 C   0  0  0  0  0  0  0  0  0  0  0  0
   10.3826   21.4025   26.4206 N   0  0  0  0  0  0  0  0  0  0  0  0
   11.6782   21.7751   25.8771 C   0  0  0  0  0  0  0  0  0  0  0  0
   14.4607   22.6704   22.3576 C   0  0  0  0  0  0  0  0  0  0  0  0
   14.8846   23.0935   20.9942 C   0  0  0  0  0  0  0  0  0  0  0  0
   15.6437   22.3800   20.3438 O   0  0  0  0  0  0  0  0  0  0  0  0
  1  2  1  0
  2  3  1  0
  3  4  2  0
  4  5  1  0
  5  6  1  0
  7  6  1  1
  7  8  1  0
  8  9  1  0
  9 10  1  0
 10 11  1  0
 11 12  1  0
 12 13  1  0
  5 14  2  0
 14 15  1  0
 15 16  2  0
 15  2  1  0
 13  7  1  0
M  END
>  <inchikey>  (18) 
KQFUVIPQGHKRPL-UHFFFAOYSA-N

>  <energy_score>  (18) 
-36.476669

>  <subsites>  (18) 
4 - A0525/A/246/1,1 - Active Site

>  <alias>  (18) 
C4581-P20

>  <tags>  (18) 
openbind_a71ev2a_c1_scaffolds,BulkDock Fragalysis export,openbind_a71ev2a_c1_knitwork_impure,fragmenstein_placed

>  <distance_score>  (18) 
0.901197

>  <placement_batch>  (18) 
openbind_a71ev2a_c1_knitwork_impure

>  <name>  (18) 
C4581-P20

>  <ref_mols>  (18) 
A0525a,A4994a

>  <smiles>  (18) 
Cn1ccc(N[C@@H]2CCCCNC2)cc1=O

>  <HIPPO Compound ID>  (18) 
2396

>  <HIPPO Pose ID>  (18) 
331985

>  <ref_pdb>  (18) 
A5036a

$$$$
C4584-P20
     RDKit          3D

 18 19  0  0  0  0  0  0  0  0999 V2000
   14.2344   24.9270   25.6316 C   0  0  0  0  0  0  0  0  0  0  0  0
   14.5488   23.6466   25.3902 C   0  0  0  0  0  0  0  0  0  0  0  0
   14.0565   22.7836   24.2565 C   0  0  0  0  0  0  0  0  0  0  0  0
   12.8164   23.2132   23.6887 O   0  0  0  0  0  0  0  0  0  0  0  0
   11.6913   23.1846   24.5033 C   0  0  0  0  0  0  0  0  0  0  0  0
   10.7700   24.1488   24.3572 C   0  0  0  0  0  0  0  0  0  0  0  0
    9.5885   24.2096   25.1734 C   0  0  0  0  0  0  0  0  0  0  0  0
    9.4217   23.3293   26.1633 C   0  0  0  0  0  0  0  0  0  0  0  0
   10.3505   22.3344   26.3926 N   0  0  0  0  0  0  0  0  0  0  0  0
   10.2248   21.5038   27.5884 C   0  0  0  0  0  0  0  0  0  0  0  0
   11.1158   21.9927   28.7488 C   0  0  0  0  0  0  0  0  0  0  0  0
   10.6817   23.3660   29.2845 C   0  0  0  0  0  0  0  0  0  0  0  0
   11.4884   23.7682   30.5175 C   0  0  0  0  0  0  0  0  0  0  0  0
   11.3954   22.7577   31.5704 N   0  0  0  0  0  0  0  0  0  0  0  0
   11.8979   21.4667   31.1007 C   0  0  0  0  0  0  0  0  0  0  0  0
   11.1062   20.9692   29.8945 C   0  0  0  0  0  0  0  0  0  0  0  0
   11.4545   22.1296   25.5559 C   0  0  0  0  0  0  0  0  0  0  0  0
   12.2179   21.1763   25.6627 O   0  0  0  0  0  0  0  0  0  0  0  0
  1  2  2  0
  2  3  1  0
  3  4  1  0
  4  5  1  0
  5  6  2  0
  6  7  1  0
  7  8  2  0
  8  9  1  0
  9 10  1  0
 10 11  1  0
 11 12  1  0
 12 13  1  0
 13 14  1  0
 14 15  1  0
 15 16  1  0
  9 17  1  0
 17 18  2  0
 17  5  1  0
 16 11  1  0
M  END
>  <inchikey>  (19) 
VOTQTKPUGDWATD-UHFFFAOYSA-N

>  <energy_score>  (19) 
-37.312647

>  <subsites>  (19) 
4 - A0525/A/246/1,1 - Active Site

>  <alias>  (19) 
C4584-P20

>  <tags>  (19) 
openbind_a71ev2a_c1_scaffolds,BulkDock Fragalysis export,openbind_a71ev2a_c1_knitwork_impure,fragmenstein_placed

>  <distance_score>  (19) 
0.762911

>  <placement_batch>  (19) 
openbind_a71ev2a_c1_knitwork_impure

>  <name>  (19) 
C4584-P20

>  <ref_mols>  (19) 
A0525a,A4994a

>  <smiles>  (19) 
C=CCOc1cccn(CC2CCNCC2)c1=O

>  <HIPPO Compound ID>  (19) 
29678

>  <HIPPO Pose ID>  (19) 
331990

>  <ref_pdb>  (19) 
A5036a

$$$$
C8131-P308
     RDKit          3D

 13 13  0  0  0  0  0  0  0  0999 V2000
   11.8073   15.1399   23.1620 C   0  0  0  0  0  0  0  0  0  0  0  0
   10.6421   15.1238   22.8773 C   0  0  0  0  0  0  0  0  0  0  0  0
    9.2301   15.1061   22.4789 C   0  0  0  0  0  0  0  0  0  0  0  0
    8.4482   13.9569   23.0850 C   0  0  0  0  0  0  0  0  0  0  0  0
    7.5875   13.3677   22.4244 O   0  0  0  0  0  0  0  0  0  0  0  0
    8.7049   13.6553   24.5718 C   0  0  1  0  0  0  0  0  0  0  0  0
    8.4132   14.8147   25.3517 O   0  0  0  0  0  0  0  0  0  0  0  0
    7.9807   12.4522   25.1797 C   0  0  0  0  0  0  0  0  0  0  0  0
    8.2429   11.1440   24.4380 C   0  0  0  0  0  0  0  0  0  0  0  0
    7.5428    9.9869   25.1294 C   0  0  0  0  0  0  0  0  0  0  0  0
    6.1327   10.2041   25.4093 N   0  0  0  0  0  0  0  0  0  0  0  0
    5.8469   11.4594   26.0854 C   0  0  0  0  0  0  0  0  0  0  0  0
    6.4813   12.6665   25.4054 C   0  0  0  0  0  0  0  0  0  0  0  0
  1  2  3  0
  2  3  1  0
  3  4  1  0
  4  5  2  0
  4  6  1  0
  6  7  1  1
  6  8  1  0
  8  9  1  0
  9 10  1  0
 10 11  1  0
 11 12  1  0
 12 13  1  0
 13  8  1  0
M  END
>  <inchikey>  (20) 
GDQVYSCIVDEKLE-UHFFFAOYSA-N

>  <energy_score>  (20) 
-28.63661

>  <subsites>  (20) 
1 - Active Site

>  <alias>  (20) 
C8131-P308

>  <tags>  (20) 
openbind_a71ev2a_c1_scaffolds,BulkDock Fragalysis export,openbind_a71ev2a_c1_knitwork_impure,fragmenstein_placed

>  <distance_score>  (20) 
0.959517

>  <placement_batch>  (20) 
openbind_a71ev2a_c1_knitwork_impure

>  <name>  (20) 
C8131-P308

>  <ref_mols>  (20) 
A4331a,A0719a

>  <smiles>  (20) 
C#CCC(=O)[C@@H](O)C1CCNCC1

>  <HIPPO Compound ID>  (20) 
27712

>  <HIPPO Pose ID>  (20) 
332342

>  <ref_pdb>  (20) 
A5036a

$$$$
C8152-P308
     RDKit          3D

 14 14  0  0  0  0  0  0  0  0999 V2000
    9.2249    8.9040   23.6765 C   0  0  0  0  0  0  0  0  0  0  0  0
    9.1476   10.3851   23.9916 C   0  0  0  0  0  0  0  0  0  0  0  0
    7.8259   10.6745   24.4863 O   0  0  0  0  0  0  0  0  0  0  0  0
    7.5265   11.8560   25.0814 C   0  0  0  0  0  0  0  0  0  0  0  0
    6.5146   11.9686   25.7726 O   0  0  0  0  0  0  0  0  0  0  0  0
    8.4812   13.0357   24.8795 C   0  0  2  0  0  0  0  0  0  0  0  0
    8.2669   14.0222   25.9031 O   0  0  0  0  0  0  0  0  0  0  0  0
    8.2815   13.7206   23.5110 C   0  0  0  0  0  0  0  0  0  0  0  0
    9.5313   14.1304   22.8350 N   0  0  0  0  0  0  0  0  0  0  0  0
   10.4442   14.9025   23.6904 C   0  0  0  0  0  0  0  0  0  0  0  0
   11.7638   15.0994   22.9504 C   0  0  0  0  0  0  0  0  0  0  0  0
   11.5608   15.9064   21.6778 C   0  0  0  0  0  0  0  0  0  0  0  0
   10.4884   15.2547   20.8153 C   0  0  0  0  0  0  0  0  0  0  0  0
    9.2271   14.9192   21.6184 C   0  0  0  0  0  0  0  0  0  0  0  0
  1  2  1  0
  2  3  1  0
  3  4  1  0
  4  5  2  0
  4  6  1  0
  6  7  1  1
  6  8  1  0
  8  9  1  0
  9 10  1  0
 10 11  1  0
 11 12  1  0
 12 13  1  0
 13 14  1  0
 14  9  1  0
M  END
>  <inchikey>  (21) 
COBZFPMMXCEFIL-UHFFFAOYSA-N

>  <energy_score>  (21) 
-24.492402

>  <subsites>  (21) 
1 - Active Site

>  <alias>  (21) 
C8152-P308

>  <tags>  (21) 
openbind_a71ev2a_c1_scaffolds,BulkDock Fragalysis export,openbind_a71ev2a_c1_knitwork_impure,fragmenstein_placed

>  <distance_score>  (21) 
0.76712

>  <placement_batch>  (21) 
openbind_a71ev2a_c1_knitwork_impure

>  <name>  (21) 
C8152-P308

>  <ref_mols>  (21) 
A4331a,A0719a

>  <smiles>  (21) 
CCOC(=O)[C@H](O)CN1CCCCC1

>  <HIPPO Compound ID>  (21) 
6091

>  <HIPPO Pose ID>  (21) 
332364

>  <ref_pdb>  (21) 
A5036a

$$$$
C8163-P308
     RDKit          3D

 15 15  0  0  0  0  0  0  0  0999 V2000
   11.3253   15.4925   20.0171 C   0  0  0  0  0  0  0  0  0  0  0  0
   11.6005   15.2806   21.1655 C   0  0  0  0  0  0  0  0  0  0  0  0
   11.8421   14.9304   22.5690 C   0  0  0  0  0  0  0  0  0  0  0  0
   10.6663   15.3344   23.4483 C   0  0  0  0  0  0  0  0  0  0  0  0
    9.3866   14.8327   22.9290 N   0  0  0  0  0  0  0  0  0  0  0  0
    8.8461   13.3016   23.3006 S   0  0  0  0  0  0  0  0  0  0  0  0
    7.6761   13.0749   22.4801 O   0  0  0  0  0  0  0  0  0  0  0  0
    9.9553   12.3769   23.3419 O   0  0  0  0  0  0  0  0  0  0  0  0
    8.3014   13.5658   24.9494 C   0  0  0  0  0  0  0  0  0  0  0  0
    7.5184   12.4226   25.5602 C   0  0  1  0  0  0  0  0  0  0  0  0
    6.0424   12.7628   25.7277 C   0  0  0  0  0  0  0  0  0  0  0  0
    5.3853   11.7091   26.6040 C   0  0  0  0  0  0  0  0  0  0  0  0
    5.7067   10.2952   26.1392 C   0  0  0  0  0  0  0  0  0  0  0  0
    7.1095   10.0360   25.8546 N   0  0  0  0  0  0  0  0  0  0  0  0
    7.7249   11.0270   24.9840 C   0  0  0  0  0  0  0  0  0  0  0  0
  1  2  3  0
  2  3  1  0
  3  4  1  0
  4  5  1  0
  5  6  1  0
  6  7  2  0
  6  8  2  0
  6  9  1  0
 10  9  1  6
 10 11  1  0
 11 12  1  0
 12 13  1  0
 13 14  1  0
 14 15  1  0
 15 10  1  0
M  END
>  <inchikey>  (22) 
YLJSCEDYXYHCFH-UHFFFAOYSA-N

>  <energy_score>  (22) 
-57.210835

>  <subsites>  (22) 
1 - Active Site

>  <alias>  (22) 
C8163-P308

>  <tags>  (22) 
openbind_a71ev2a_c1_scaffolds,BulkDock Fragalysis export,openbind_a71ev2a_c1_knitwork_impure,fragmenstein_placed

>  <distance_score>  (22) 
0.899907

>  <placement_batch>  (22) 
openbind_a71ev2a_c1_knitwork_impure

>  <name>  (22) 
C8163-P308

>  <ref_mols>  (22) 
A4331a,A0719a

>  <smiles>  (22) 
C#CCCNS(=O)(=O)C[C@H]1CCCNC1

>  <HIPPO Compound ID>  (22) 
13816

>  <HIPPO Pose ID>  (22) 
332371

>  <ref_pdb>  (22) 
A5036a

$$$$
C8173-P308
     RDKit          3D

 17 17  0  0  0  0  0  0  0  0999 V2000
    7.5322   13.2496   22.2912 O   0  0  0  0  0  0  0  0  0  0  0  0
    8.2799   13.9144   22.8938 C   0  0  0  0  0  0  0  0  0  0  0  0
    9.2041   15.0735   22.4216 N   0  0  0  0  0  0  0  0  0  0  0  0
    9.4637   15.5832   21.0981 C   0  0  0  0  0  0  0  0  0  0  0  0
   10.8939   15.2603   20.7068 C   0  0  0  0  0  0  0  0  0  0  0  0
   11.1194   15.4479   19.2316 C   0  0  0  0  0  0  0  0  0  0  0  0
   10.5083   14.5125   18.4933 F   0  0  0  0  0  0  0  0  0  0  0  0
   10.6885   16.6573   18.8258 F   0  0  0  0  0  0  0  0  0  0  0  0
   12.4366   15.3477   18.9565 F   0  0  0  0  0  0  0  0  0  0  0  0
    8.6263   13.7190   24.3823 C   0  0  1  0  0  0  0  0  0  0  0  0
    8.4767   14.8798   25.0881 F   0  0  0  0  0  0  0  0  0  0  0  0
    7.9126   12.6059   25.1386 C   0  0  0  0  0  0  0  0  0  0  0  0
    8.1328   11.2229   24.5277 C   0  0  0  0  0  0  0  0  0  0  0  0
    7.3957   10.1572   25.3182 C   0  0  0  0  0  0  0  0  0  0  0  0
    5.9942   10.4483   25.5570 N   0  0  0  0  0  0  0  0  0  0  0  0
    5.7623   11.7608   26.1474 C   0  0  0  0  0  0  0  0  0  0  0  0
    6.4272   12.8877   25.3608 C   0  0  0  0  0  0  0  0  0  0  0  0
  1  2  2  0
  2  3  1  0
  3  4  1  0
  4  5  1  0
  5  6  1  0
  6  7  1  0
  6  8  1  0
  6  9  1  0
  2 10  1  0
 10 11  1  1
 10 12  1  0
 12 13  1  0
 13 14  1  0
 14 15  1  0
 15 16  1  0
 16 17  1  0
 17 12  1  0
M  END
>  <inchikey>  (23) 
OAMNIYGWLQGWFH-UHFFFAOYSA-N

>  <energy_score>  (23) 
-8.012444

>  <subsites>  (23) 
1 - Active Site

>  <alias>  (23) 
C8173-P308

>  <tags>  (23) 
openbind_a71ev2a_c1_scaffolds,BulkDock Fragalysis export,openbind_a71ev2a_c1_knitwork_impure,fragmenstein_placed

>  <distance_score>  (23) 
0.954878

>  <placement_batch>  (23) 
openbind_a71ev2a_c1_knitwork_impure

>  <name>  (23) 
C8173-P308

>  <ref_mols>  (23) 
A4331a,A0719a

>  <smiles>  (23) 
O=C(NCCC(F)(F)F)[C@@H](F)C1CCNCC1

>  <HIPPO Compound ID>  (23) 
29694

>  <HIPPO Pose ID>  (23) 
332381

>  <ref_pdb>  (23) 
A5036a

$$$$
C727-P310
     RDKit          3D

 12 13  0  0  0  0  0  0  0  0999 V2000
    7.3358   12.0245   25.3821 C   0  0  0  0  0  0  0  0  0  0  0  0
    7.9966   12.9920   24.6340 C   0  0  0  0  0  0  0  0  0  0  0  0
    9.0384   12.5983   23.8024 C   0  0  0  0  0  0  0  0  0  0  0  0
    9.8137   13.4861   23.0495 N   0  0  0  0  0  0  0  0  0  0  0  0
   10.9837   13.9786   23.7912 C   0  0  0  0  0  0  0  0  0  0  0  0
   11.9988   14.5425   22.8029 C   0  0  0  0  0  0  0  0  0  0  0  0
   11.3868   15.6215   21.9180 C   0  0  0  0  0  0  0  0  0  0  0  0
   10.1064   15.1191   21.2534 C   0  0  0  0  0  0  0  0  0  0  0  0
    9.1292   14.5393   22.2828 C   0  0  0  0  0  0  0  0  0  0  0  0
    9.3400   11.2339   23.7484 C   0  0  0  0  0  0  0  0  0  0  0  0
    8.6257   10.3373   24.5274 C   0  0  0  0  0  0  0  0  0  0  0  0
    7.6380   10.7061   25.3678 N   0  0  0  0  0  0  0  0  0  0  0  0
  1  2  2  0
  2  3  1  0
  3  4  1  0
  4  5  1  0
  5  6  1  0
  6  7  1  0
  7  8  1  0
  8  9  1  0
  3 10  2  0
 10 11  1  0
 11 12  2  0
 12  1  1  0
  9  4  1  0
M  END
>  <inchikey>  (24) 
SBOGVGGESDHHSA-UHFFFAOYSA-N

>  <energy_score>  (24) 
-16.501092

>  <subsites>  (24) 
1 - Active Site

>  <alias>  (24) 
C727-P310

>  <tags>  (24) 
openbind_a71ev2a_c1_scaffolds,BulkDock Fragalysis export,openbind_a71ev2a_c1_knitwork_impure,fragmenstein_placed

>  <distance_score>  (24) 
0.91253

>  <placement_batch>  (24) 
openbind_a71ev2a_c1_knitwork_impure

>  <name>  (24) 
C727-P310

>  <ref_mols>  (24) 
A3623a,A4333a

>  <smiles>  (24) 
c1cc(N2CCCCC2)ccn1

>  <HIPPO Compound ID>  (24) 
6108

>  <HIPPO Pose ID>  (24) 
332406

>  <ref_pdb>  (24) 
A5036a

$$$$
C2414-P197
     RDKit          3D

 16 16  0  0  0  0  0  0  0  0999 V2000
    6.5092    9.9602   25.9469 C   0  0  0  0  0  0  0  0  0  0  0  0
    7.2428   10.7701   25.4516 C   0  0  0  0  0  0  0  0  0  0  0  0
    8.0654   11.8625   24.9170 C   0  0  0  0  0  0  0  0  0  0  0  0
    7.5925   13.1609   25.5475 C   0  0  0  0  0  0  0  0  0  0  0  0
    8.5262   14.3194   25.2763 C   0  0  0  0  0  0  0  0  0  0  0  0
    9.3768   14.5691   26.1451 O   0  0  0  0  0  0  0  0  0  0  0  0
    8.3562   15.1981   23.9780 C   0  0  1  0  0  0  0  0  0  0  0  0
    7.0522   14.7726   23.2652 C   0  0  0  0  0  0  0  0  0  0  0  0
    8.1854   16.6533   24.5279 C   0  0  0  0  0  0  0  0  0  0  0  0
    7.3058   17.6021   23.7242 C   0  0  0  0  0  0  0  0  0  0  0  0
    9.5190   14.9664   23.0436 N   0  0  0  0  0  0  0  0  0  0  0  0
   10.8499   15.1437   23.6670 C   0  0  0  0  0  0  0  0  0  0  0  0
   12.0019   14.8084   22.7134 C   0  0  0  0  0  0  0  0  0  0  0  0
   11.9339   15.6149   21.4287 C   0  0  0  0  0  0  0  0  0  0  0  0
   10.5565   15.4686   20.8097 C   0  0  0  0  0  0  0  0  0  0  0  0
    9.4634   15.8117   21.8222 C   0  0  0  0  0  0  0  0  0  0  0  0
  1  2  3  0
  2  3  1  0
  3  4  1  0
  4  5  1  0
  5  6  2  0
  5  7  1  0
  7  8  1  6
  7  9  1  0
  9 10  1  0
  7 11  1  0
 11 12  1  0
 12 13  1  0
 13 14  1  0
 14 15  1  0
 15 16  1  0
 16 11  1  0
M  END
>  <inchikey>  (25) 
AIHZEWPQJWAUAF-UHFFFAOYSA-N

>  <energy_score>  (25) 
-37.076828

>  <subsites>  (25) 
1 - Active Site

>  <alias>  (25) 
C2414-P197

>  <tags>  (25) 
openbind_a71ev2a_c1_scaffolds,BulkDock Fragalysis export,openbind_a71ev2a_c1_knitwork_impure,fragmenstein_placed

>  <distance_score>  (25) 
0.810794

>  <placement_batch>  (25) 
openbind_a71ev2a_c1_knitwork_impure

>  <name>  (25) 
C2414-P197

>  <ref_mols>  (25) 
A1779a,A3616b

>  <smiles>  (25) 
C#CCCC(=O)[C@@](C)(CC)N1CCCCC1

>  <HIPPO Compound ID>  (25) 
32227

>  <HIPPO Pose ID>  (25) 
332682

>  <ref_pdb>  (25) 
A5036a

$$$$
C2408-P323
     RDKit          3D

 15 15  0  0  0  0  0  0  0  0999 V2000
    8.7570    9.8198   23.8399 C   0  0  0  0  0  0  0  0  0  0  0  0
    8.9115   11.3302   23.7564 C   0  0  0  0  0  0  0  0  0  0  0  0
    8.3512   12.0913   24.9489 C   0  0  2  0  0  0  0  0  0  0  0  0
    6.8940   11.8363   25.2755 C   0  0  0  0  0  0  0  0  0  0  0  0
    8.6919   13.5800   24.9758 C   0  0  0  0  0  0  0  0  0  0  0  0
    9.2359   13.9968   26.0137 O   0  0  0  0  0  0  0  0  0  0  0  0
    8.3724   14.5640   23.7897 C   0  0  0  0  0  0  0  0  0  0  0  0
    7.0938   14.1582   23.0347 C   0  0  0  0  0  0  0  0  0  0  0  0
    8.0461   15.9361   24.4450 C   0  0  0  0  0  0  0  0  0  0  0  0
    9.5468   14.6206   22.8603 N   0  0  0  0  0  0  0  0  0  0  0  0
   10.7951   15.0338   23.5314 C   0  0  0  0  0  0  0  0  0  0  0  0
   11.9910   14.9341   22.5935 C   0  0  0  0  0  0  0  0  0  0  0  0
   11.8062   15.8042   21.3644 C   0  0  0  0  0  0  0  0  0  0  0  0
   10.4970   15.4496   20.6833 C   0  0  0  0  0  0  0  0  0  0  0  0
    9.3240   15.4730   21.6665 C   0  0  0  0  0  0  0  0  0  0  0  0
  1  2  1  0
  2  3  1  0
  3  4  1  6
  3  5  1  0
  5  6  2  0
  5  7  1  0
  7  8  1  0
  7  9  1  0
  7 10  1  0
 10 11  1  0
 11 12  1  0
 12 13  1  0
 13 14  1  0
 14 15  1  0
 15 10  1  0
M  END
>  <inchikey>  (26) 
AYUAFHQJYXDAKG-UHFFFAOYSA-N

>  <energy_score>  (26) 
-46.325796

>  <subsites>  (26) 
1 - Active Site

>  <alias>  (26) 
C2408-P323

>  <tags>  (26) 
openbind_a71ev2a_c1_scaffolds,BulkDock Fragalysis export,openbind_a71ev2a_c1_knitwork_impure,fragmenstein_placed

>  <distance_score>  (26) 
0.856136

>  <placement_batch>  (26) 
openbind_a71ev2a_c1_knitwork_impure

>  <name>  (26) 
C2408-P323

>  <ref_mols>  (26) 
A4365a,A1779a

>  <smiles>  (26) 
CC[C@H](C)C(=O)C(C)(C)N1CCCCC1

>  <HIPPO Compound ID>  (26) 
31798

>  <HIPPO Pose ID>  (26) 
333980

>  <ref_pdb>  (26) 
A5036a

$$$$
C9370-P564
     RDKit          3D

 15 15  0  0  0  0  0  0  0  0999 V2000
   10.1148   15.8606   19.5310 C   0  0  0  0  0  0  0  0  0  0  0  0
    9.5300   14.9667   20.6094 C   0  0  0  0  0  0  0  0  0  0  0  0
    9.6893   15.5300   21.9055 O   0  0  0  0  0  0  0  0  0  0  0  0
   10.2216   14.4928   22.7955 N   0  0  0  0  0  0  0  0  0  0  0  0
   11.5568   14.9681   23.1520 C   0  0  0  0  0  0  0  0  0  0  0  0
   12.3651   15.4804   21.9747 C   0  0  0  0  0  0  0  0  0  0  0  0
    9.1649   14.0480   24.0660 S   0  0  2  0  0  0  0  0  0  0  0  0
    7.9173   14.8888   23.8716 N   0  0  0  0  0  0  0  0  0  0  0  0
    9.9902   13.9698   25.2505 O   0  0  0  0  0  0  0  0  0  0  0  0
    8.6288   12.4833   23.7882 N   0  0  0  0  0  0  0  0  0  0  0  0
    7.4557   11.9736   24.4916 C   0  0  0  0  0  0  0  0  0  0  0  0
    7.7211   10.5141   24.8000 C   0  0  0  0  0  0  0  0  0  0  0  0
    8.8200   10.1136   23.8462 C   0  0  0  0  0  0  0  0  0  0  0  0
    9.5735   11.3999   23.5886 C   0  0  0  0  0  0  0  0  0  0  0  0
    8.0516   15.5049   23.0687 H   0  0  0  0  0  0  0  0  0  0  0  0
  1  2  1  0
  2  3  1  0
  3  4  1  0
  4  5  1  0
  5  6  1  0
  7  4  1  6
  7  8  2  0
  7  9  2  0
  7 10  1  0
 10 11  1  0
 11 12  1  0
 12 13  1  0
 13 14  1  0
 14 10  1  0
  8 15  1  0
M  END
>  <inchikey>  (27) 
MXKVMTZMLDJXBU-UHFFFAOYSA-N

>  <energy_score>  (27) 
-59.809862

>  <subsites>  (27) 
1 - Active Site

>  <alias>  (27) 
C9370-P564

>  <tags>  (27) 
openbind_a71ev2a_c1_scaffolds,BulkDock Fragalysis export,openbind_a71ev2a_c1_knitwork_impure,fragmenstein_placed

>  <distance_score>  (27) 
0.969644

>  <placement_batch>  (27) 
openbind_a71ev2a_c1_knitwork_impure

>  <name>  (27) 
C9370-P564

>  <ref_mols>  (27) 
A5091a,A0719a

>  <smiles>  (27) 
[H]N=[S@@](=O)(N1CCCC1)N(CC)OCC

>  <HIPPO Compound ID>  (27) 
41442

>  <HIPPO Pose ID>  (27) 
334993

>  <ref_pdb>  (27) 
A5036a

$$$$
C9388-P77
     RDKit          3D

 17 17  0  0  0  0  0  0  0  0999 V2000
   12.1023   14.4708   22.9123 C   0  0  0  0  0  0  0  0  0  0  0  0
   10.6872   14.9915   22.7277 C   0  0  1  0  0  0  0  0  0  0  0  0
   10.1757   14.7488   21.3087 C   0  0  0  0  0  0  0  0  0  0  0  0
   11.2518   15.1715   20.2998 C   0  0  0  0  0  0  0  0  0  0  0  0
   10.8385   15.1842   18.8557 C   0  0  0  0  0  0  0  0  0  0  0  0
   10.6373   13.9255   18.4337 F   0  0  0  0  0  0  0  0  0  0  0  0
    9.7464   15.9392   18.6768 F   0  0  0  0  0  0  0  0  0  0  0  0
   11.8473   15.6606   18.1016 F   0  0  0  0  0  0  0  0  0  0  0  0
    9.9669   14.3608   23.8197 N   0  0  0  0  0  0  0  0  0  0  0  0
    8.3461   14.1614   23.9737 S   0  0  0  0  0  0  0  0  0  0  0  0
    7.6952   13.9256   22.7136 O   0  0  0  0  0  0  0  0  0  0  0  0
    7.9018   15.1204   24.9531 O   0  0  0  0  0  0  0  0  0  0  0  0
    8.5128   12.6815   24.7632 N   0  0  0  0  0  0  0  0  0  0  0  0
    7.2531   12.0960   25.2268 C   0  0  0  0  0  0  0  0  0  0  0  0
    7.5825   10.6334   25.4135 C   0  0  0  0  0  0  0  0  0  0  0  0
    8.6724   10.3203   24.4112 C   0  0  0  0  0  0  0  0  0  0  0  0
    9.2695   11.6483   24.0145 C   0  0  0  0  0  0  0  0  0  0  0  0
  2  1  1  6
  2  3  1  0
  3  4  1  0
  4  5  1  0
  5  6  1  0
  5  7  1  0
  5  8  1  0
  2  9  1  0
  9 10  1  0
 10 11  2  0
 10 12  2  0
 10 13  1  0
 13 14  1  0
 14 15  1  0
 15 16  1  0
 16 17  1  0
 17 13  1  0
M  END
>  <inchikey>  (28) 
CBBQZDXGIJWOCE-UHFFFAOYSA-N

>  <energy_score>  (28) 
-19.20784

>  <subsites>  (28) 
1 - Active Site

>  <alias>  (28) 
C9388-P77

>  <tags>  (28) 
openbind_a71ev2a_c1_scaffolds,BulkDock Fragalysis export,openbind_a71ev2a_c1_knitwork_impure,fragmenstein_placed

>  <distance_score>  (28) 
0.8806

>  <placement_batch>  (28) 
openbind_a71ev2a_c1_knitwork_impure

>  <name>  (28) 
C9388-P77

>  <ref_mols>  (28) 
A5091a,A0719a

>  <smiles>  (28) 
C[C@@H](CCC(F)(F)F)NS(=O)(=O)N1CCCC1

>  <HIPPO Compound ID>  (28) 
6060

>  <HIPPO Pose ID>  (28) 
335020

>  <ref_pdb>  (28) 
A5036a

$$$$
C18204-P412
     RDKit          3D

 14 14  0  0  0  0  0  0  0  0999 V2000
    8.4431    9.9324   25.0992 C   0  0  0  0  0  0  0  0  0  0  0  0
    9.3883   10.6879   24.1816 C   0  0  0  0  0  0  0  0  0  0  0  0
   10.6374   11.1528   24.9163 C   0  0  0  0  0  0  0  0  0  0  0  0
    9.7420    9.6944   23.0745 C   0  0  0  0  0  0  0  0  0  0  0  0
    8.7667   11.9825   23.6468 C   0  0  0  0  0  0  0  0  0  0  0  0
    8.0660   12.8440   24.6840 C   0  0  0  0  0  0  0  0  0  0  0  0
    7.9527   12.4886   25.8591 O   0  0  0  0  0  0  0  0  0  0  0  0
    7.3872   14.1285   24.2716 C   0  0  0  0  0  0  0  0  0  0  0  0
    7.7366   14.7000   22.9106 C   0  0  0  0  0  0  0  0  0  0  0  0
    9.1309   15.0195   22.6867 N   0  0  0  0  0  0  0  0  0  0  0  0
   10.0826   15.3934   23.5915 C   0  0  0  0  0  0  0  0  0  0  0  0
   11.2677   15.4371   22.8934 C   0  0  0  0  0  0  0  0  0  0  0  0
   10.9194   15.1224   21.5690 C   0  0  0  0  0  0  0  0  0  0  0  0
    9.6176   14.8510   21.4468 N   0  0  0  0  0  0  0  0  0  0  0  0
  1  2  1  0
  2  3  1  0
  2  4  1  0
  2  5  1  0
  5  6  1  0
  6  7  2  0
  6  8  1  0
  8  9  1  0
  9 10  1  0
 10 11  1  0
 11 12  2  0
 12 13  1  0
 13 14  2  0
 14 10  1  0
M  END
>  <inchikey>  (29) 
UXAXKRNZNZXPTI-UHFFFAOYSA-N

>  <energy_score>  (29) 
-21.822723

>  <subsites>  (29) 
1 - Active Site

>  <alias>  (29) 
C18204-P412

>  <tags>  (29) 
openbind_a71ev2a_c1_scaffolds,BulkDock Fragalysis export,openbind_a71ev2a_c1_knitwork_impure,fragmenstein_placed

>  <distance_score>  (29) 
0.987167

>  <placement_batch>  (29) 
openbind_a71ev2a_c1_knitwork_impure

>  <name>  (29) 
C18204-P412

>  <ref_mols>  (29) 
A4586a,A0556a

>  <smiles>  (29) 
CC(C)(C)CC(=O)CCn1cccn1

>  <HIPPO Compound ID>  (29) 
7599

>  <HIPPO Pose ID>  (29) 
336919

>  <ref_pdb>  (29) 
A5036a

$$$$
C8155-P328
     RDKit          3D

 16 16  0  0  0  0  0  0  0  0999 V2000
    8.2457   10.2305   24.8859 C   0  0  0  0  0  0  0  0  0  0  0  0
    6.8963    9.8307   25.3595 C   0  0  0  0  0  0  0  0  0  0  0  0
    6.0078   10.4434   26.1533 C   0  0  0  0  0  0  0  0  0  0  0  0
    6.0676   11.7327   26.7895 C   0  0  0  0  0  0  0  0  0  0  0  0
    6.4040   12.9080   26.2433 C   0  0  0  0  0  0  0  0  0  0  0  0
    6.7678   13.1539   24.8237 C   0  0  0  0  0  0  0  0  0  0  0  0
    8.1825   13.5283   24.7896 N   0  0  0  0  0  0  0  0  0  0  0  0
    8.8718   13.3812   23.2692 S   0  0  0  0  0  0  0  0  0  0  0  0
    7.7946   13.1858   22.3277 O   0  0  0  0  0  0  0  0  0  0  0  0
    9.9471   12.4331   23.4451 O   0  0  0  0  0  0  0  0  0  0  0  0
    9.4691   14.9317   23.1270 N   0  0  0  0  0  0  0  0  0  0  0  0
   10.7371   15.2577   23.7944 C   0  0  0  0  0  0  0  0  0  0  0  0
   11.9096   14.9709   22.8662 C   0  0  0  0  0  0  0  0  0  0  0  0
   11.7650   15.7149   21.5420 C   0  0  0  0  0  0  0  0  0  0  0  0
   10.4270   15.3853   20.8885 C   0  0  0  0  0  0  0  0  0  0  0  0
    9.2727   15.6531   21.8445 C   0  0  0  0  0  0  0  0  0  0  0  0
  1  2  1  0
  2  3  2  3
  3  4  1  0
  4  5  2  3
  5  6  1  0
  6  7  1  0
  7  8  1  0
  8  9  2  0
  8 10  2  0
  8 11  1  0
 11 12  1  0
 12 13  1  0
 13 14  1  0
 14 15  1  0
 15 16  1  0
 16 11  1  0
M  END
>  <inchikey>  (30) 
XMYOBLGSEFSZPI-UHFFFAOYSA-N

>  <energy_score>  (30) 
-52.932324

>  <subsites>  (30) 
1 - Active Site

>  <alias>  (30) 
C8155-P328

>  <tags>  (30) 
openbind_a71ev2a_c1_scaffolds,BulkDock Fragalysis export,openbind_a71ev2a_c1_knitwork_impure,fragmenstein_placed

>  <distance_score>  (30) 
0.909612

>  <placement_batch>  (30) 
openbind_a71ev2a_c1_knitwork_impure

>  <name>  (30) 
C8155-P328

>  <ref_mols>  (30) 
A4374a,A0719a

>  <smiles>  (30) 
CC=CC=CCNS(=O)(=O)N1CCCCC1

>  <HIPPO Compound ID>  (30) 
8470

>  <HIPPO Pose ID>  (30) 
336962

>  <ref_pdb>  (30) 
A5036a

$$$$
C4703-P122
     RDKit          3D

 11 11  0  0  0  0  0  0  0  0999 V2000
   12.0903   10.6329   22.1073 C   0  0  0  0  0  0  0  0  0  0  0  0
   11.3453   10.7587   23.2088 C   0  0  0  0  0  0  0  0  0  0  0  0
   11.2250   12.0415   23.9765 C   0  0  0  0  0  0  0  0  0  0  0  0
    9.7756   12.3202   24.3914 C   0  0  0  0  0  0  0  0  0  0  0  0
    9.1260   11.1938   25.1232 N   0  0  0  0  0  0  0  0  0  0  0  0
    7.6979   11.5402   25.3969 C   0  0  1  0  0  0  0  0  0  0  0  0
    6.8180   10.4567   25.9960 C   0  0  0  0  0  0  0  0  0  0  0  0
    7.6065   12.6063   26.4565 C   0  0  0  0  0  0  0  0  0  0  0  0
    6.5428   13.1322   26.7779 O   0  0  0  0  0  0  0  0  0  0  0  0
    9.2294    9.9836   24.2719 C   0  0  0  0  0  0  0  0  0  0  0  0
   10.6173    9.5887   23.7741 C   0  0  0  0  0  0  0  0  0  0  0  0
  1  2  2  0
  2  3  1  0
  3  4  1  0
  4  5  1  0
  5  6  1  0
  6  7  1  1
  6  8  1  0
  8  9  2  0
  5 10  1  0
 10 11  1  0
 11  2  1  0
M  END
>  <inchikey>  (31) 
QLWADYUBFZPSNX-UHFFFAOYSA-N

>  <energy_score>  (31) 
-34.900194

>  <subsites>  (31) 
1 - Active Site

>  <alias>  (31) 
C4703-P122

>  <tags>  (31) 
openbind_a71ev2a_c1_scaffolds,BulkDock Fragalysis export,openbind_a71ev2a_c1_knitwork_impure,fragmenstein_placed

>  <distance_score>  (31) 
0.91435

>  <placement_batch>  (31) 
openbind_a71ev2a_c1_knitwork_impure

>  <name>  (31) 
C4703-P122

>  <ref_mols>  (31) 
A4877b,A1775a

>  <smiles>  (31) 
C=C1CCN([C@@H](C)C=O)CC1

>  <HIPPO Compound ID>  (31) 
8912

>  <HIPPO Pose ID>  (31) 
337305

>  <ref_pdb>  (31) 
A5036a

$$$$
C11373-P9
     RDKit          3D

 19 21  0  0  0  0  0  0  0  0999 V2000
   22.6809   13.7121    1.4635 C   0  0  0  0  0  0  0  0  0  0  0  0
   22.0106   14.1454    2.7519 C   0  0  0  0  0  0  0  0  0  0  0  0
   20.5873   14.3868    2.5872 N   0  0  0  0  0  0  0  0  0  0  0  0
   19.6966   13.3908    2.8242 N   0  0  0  0  0  0  0  0  0  0  0  0
   18.5128   13.9837    2.6573 C   0  0  0  0  0  0  0  0  0  0  0  0
   18.6265   15.3438    2.3009 C   0  0  0  0  0  0  0  0  0  0  0  0
   17.7342   16.3920    2.0228 C   0  0  0  0  0  0  0  0  0  0  0  0
   18.2527   17.6518    1.6914 C   0  0  0  0  0  0  0  0  0  0  0  0
   19.6308   17.8724    1.6398 C   0  0  0  0  0  0  0  0  0  0  0  0
   20.0832   19.1458    1.3035 N   0  0  0  0  0  0  0  0  0  0  0  0
   21.5286   19.7025    1.1767 C   0  0  0  0  0  0  0  0  0  0  0  0
   22.5625   19.1568    1.2598 O   0  0  0  0  0  0  0  0  0  0  0  0
   21.4463   21.2364    0.8648 C   0  0  0  0  0  0  0  0  0  0  0  0
   22.4197   22.1567    1.6686 C   0  0  0  0  0  0  0  0  0  0  0  0
   22.7160   22.8634    0.3343 C   0  0  0  0  0  0  0  0  0  0  0  0
   23.1970   23.9344    0.0353 O   0  0  0  0  0  0  0  0  0  0  0  0
   22.1101   21.6997   -0.4698 C   0  0  0  0  0  0  0  0  0  0  0  0
   20.5298   16.8390    1.9195 C   0  0  0  0  0  0  0  0  0  0  0  0
   19.9957   15.5826    2.2473 C   0  0  0  0  0  0  0  0  0  0  0  0
  1  2  1  0
  2  3  1  0
  3  4  1  0
  4  5  2  0
  5  6  1  0
  6  7  2  0
  7  8  1  0
  8  9  2  0
  9 10  1  0
 10 11  1  0
 11 12  2  0
 11 13  1  0
 13 14  1  0
 14 15  1  0
 15 16  2  0
 15 17  1  0
  9 18  1  0
 18 19  2  0
 19  3  1  0
 19  6  1  0
 17 13  1  0
M  END
>  <inchikey>  (32) 
JORZCDFDZUSFGH-UHFFFAOYSA-N

>  <energy_score>  (32) 
-38.732086

>  <subsites>  (32) 
6 - A0486/A/147/1,1 - Active Site

>  <alias>  (32) 
C11373-P9

>  <tags>  (32) 
openbind_a71ev2a_c1_scaffolds,BulkDock Fragalysis export,openbind_a71ev2a_c1_knitwork_impure,fragmenstein_placed

>  <distance_score>  (32) 
0.429145

>  <placement_batch>  (32) 
openbind_a71ev2a_c1_knitwork_impure

>  <name>  (32) 
C11373-P9

>  <ref_mols>  (32) 
A0486a,A0528a

>  <smiles>  (32) 
CCn1ncc2ccc(NC(=O)C3CC(=O)C3)cc21

>  <HIPPO Compound ID>  (32) 
525

>  <HIPPO Pose ID>  (32) 
337480

>  <ref_pdb>  (32) 
A5036a

$$$$
C4790-P187
     RDKit          3D

 10 11  0  0  0  0  0  0  0  0999 V2000
    8.1101   13.8902   24.7403 C   0  0  0  0  0  0  0  0  0  0  0  0
    7.4832   12.7815   25.1498 C   0  0  0  0  0  0  0  0  0  0  0  0
    7.7642   11.4301   24.8477 C   0  0  0  0  0  0  0  0  0  0  0  0
    7.1266   10.2766   25.3422 C   0  0  0  0  0  0  0  0  0  0  0  0
    7.6396    9.1542   24.8432 N   0  0  0  0  0  0  0  0  0  0  0  0
    8.6185    9.5842   24.0223 N   0  0  0  0  0  0  0  0  0  0  0  0
    8.7281   10.9488   23.9924 C   0  0  0  0  0  0  0  0  0  0  0  0
    6.3436   13.0905   26.0728 C   0  0  0  0  0  0  0  0  0  0  0  0
    6.1694   14.5993   25.8844 C   0  0  0  0  0  0  0  0  0  0  0  0
    7.4917   15.1172   25.3208 C   0  0  0  0  0  0  0  0  0  0  0  0
  1  2  2  0
  2  3  1  0
  3  4  1  0
  4  5  2  0
  5  6  1  0
  6  7  1  0
  2  8  1  0
  8  9  1  0
  9 10  1  0
 10  1  1  0
  7  3  2  0
M  END
>  <inchikey>  (33) 
SINRWOHZHXCYHE-UHFFFAOYSA-N

>  <energy_score>  (33) 
-12.465519

>  <subsites>  (33) 
1 - Active Site

>  <alias>  (33) 
C4790-P187

>  <tags>  (33) 
openbind_a71ev2a_c1_scaffolds,BulkDock Fragalysis export,openbind_a71ev2a_c1_knitwork_impure,fragmenstein_placed

>  <distance_score>  (33) 
0.988134

>  <placement_batch>  (33) 
openbind_a71ev2a_c1_knitwork_impure

>  <name>  (33) 
C4790-P187

>  <ref_mols>  (33) 
A3485a,A0556a

>  <smiles>  (33) 
C1=C(c2cn[nH]c2)CCC1

>  <HIPPO Compound ID>  (33) 
14093

>  <HIPPO Pose ID>  (33) 
337735

>  <ref_pdb>  (33) 
A5036a

$$$$
C18177-P364
     RDKit          3D

 11 11  0  0  0  0  0  0  0  0999 V2000
    8.2412   14.9656   22.9795 C   0  0  0  0  0  0  0  0  0  0  0  0
    7.1632   14.1373   23.6431 C   0  0  0  0  0  0  0  0  0  0  0  0
    7.6849   13.3963   24.8617 C   0  0  0  0  0  0  0  0  0  0  0  0
    7.7583   13.8844   26.0652 N   0  0  0  0  0  0  0  0  0  0  0  0
    7.3490   15.2223   26.0725 O   0  0  0  0  0  0  0  0  0  0  0  0
    7.6523   15.7964   27.3323 C   0  0  0  0  0  0  0  0  0  0  0  0
    8.1646   12.0435   24.7173 C   0  0  0  0  0  0  0  0  0  0  0  0
    7.7540   10.9102   25.4348 C   0  0  0  0  0  0  0  0  0  0  0  0
    8.3878    9.8035   25.0483 N   0  0  0  0  0  0  0  0  0  0  0  0
    9.2207   10.2220   24.0793 N   0  0  0  0  0  0  0  0  0  0  0  0
    9.1275   11.5676   23.8519 C   0  0  0  0  0  0  0  0  0  0  0  0
  1  2  1  0
  2  3  1  0
  3  4  2  3
  4  5  1  0
  5  6  1  0
  3  7  1  0
  7  8  1  0
  8  9  2  0
  9 10  1  0
 10 11  1  0
 11  7  2  0
M  END
>  <inchikey>  (34) 
JICXCXXASDPJKV-UHFFFAOYSA-N

>  <energy_score>  (34) 
-32.998201

>  <subsites>  (34) 
1 - Active Site

>  <alias>  (34) 
C18177-P364

>  <tags>  (34) 
openbind_a71ev2a_c1_scaffolds,BulkDock Fragalysis export,openbind_a71ev2a_c1_knitwork_impure,fragmenstein_placed

>  <distance_score>  (34) 
0.96422

>  <placement_batch>  (34) 
openbind_a71ev2a_c1_knitwork_impure

>  <name>  (34) 
C18177-P364

>  <ref_mols>  (34) 
A4445b,A0556a

>  <smiles>  (34) 
CCC(=NOC)c1cn[nH]c1

>  <HIPPO Compound ID>  (34) 
38436

>  <HIPPO Pose ID>  (34) 
337930

>  <ref_pdb>  (34) 
A5036a

$$$$
C8146-P93
     RDKit          3D

 18 18  0  0  0  0  0  0  0  0999 V2000
   11.5709   14.6453   22.6531 C   0  0  0  0  0  0  0  0  0  0  0  0
   11.0152   15.0271   21.3026 C   0  0  0  0  0  0  0  0  0  0  0  0
    9.5800   14.5459   21.0351 C   0  0  0  0  0  0  0  0  0  0  0  0
    8.4613   15.3415   21.6015 N   0  0  0  0  0  0  0  0  0  0  0  0
    8.6274   16.7824   21.6815 C   0  0  0  0  0  0  0  0  0  0  0  0
    9.0688   17.5361   20.4498 C   0  0  0  0  0  0  0  0  0  0  0  0
    7.0425   14.6713   22.1951 S   0  0  0  0  0  0  0  0  0  0  0  0
    7.0322   13.2462   21.9862 O   0  0  0  0  0  0  0  0  0  0  0  0
    5.9052   15.4677   21.8086 O   0  0  0  0  0  0  0  0  0  0  0  0
    7.1696   14.9746   23.8386 N   0  0  0  0  0  0  0  0  0  0  0  0
    8.2818   14.4990   24.6695 C   0  0  1  0  0  0  0  0  0  0  0  0
    7.9941   14.9090   26.1174 C   0  0  0  0  0  0  0  0  0  0  0  0
    8.5283   12.9996   24.4856 C   0  0  0  0  0  0  0  0  0  0  0  0
    7.4050   12.1003   25.0278 C   0  0  0  0  0  0  0  0  0  0  0  0
    7.9025   10.6837   25.2810 C   0  0  0  0  0  0  0  0  0  0  0  0
    8.8975   10.2553   24.3235 N   0  0  0  0  0  0  0  0  0  0  0  0
   10.0917   11.0933   24.3469 C   0  0  0  0  0  0  0  0  0  0  0  0
    9.8772   12.4820   24.9705 C   0  0  0  0  0  0  0  0  0  0  0  0
  1  2  1  0
  2  3  1  0
  3  4  1  0
  4  5  1  0
  5  6  1  0
  4  7  1  0
  7  8  2  0
  7  9  2  0
  7 10  1  0
 10 11  1  0
 11 12  1  1
 11 13  1  0
 13 14  1  0
 14 15  1  0
 15 16  1  0
 16 17  1  0
 17 18  1  0
 18 13  1  0
M  END
>  <inchikey>  (35) 
DJZJZIVHKYRBPY-UHFFFAOYSA-N

>  <energy_score>  (35) 
-34.543368

>  <subsites>  (35) 
1 - Active Site

>  <alias>  (35) 
C8146-P93

>  <tags>  (35) 
openbind_a71ev2a_c1_scaffolds,BulkDock Fragalysis export,openbind_a71ev2a_c1_knitwork_impure,fragmenstein_placed

>  <distance_score>  (35) 
0.882252

>  <placement_batch>  (35) 
openbind_a71ev2a_c1_knitwork_impure

>  <name>  (35) 
C8146-P93

>  <ref_mols>  (35) 
A0719a,A0926a

>  <smiles>  (35) 
CCCN(CC)S(=O)(=O)N[C@@H](C)C1CCNCC1

>  <HIPPO Compound ID>  (35) 
10284

>  <HIPPO Pose ID>  (35) 
338111

>  <ref_pdb>  (35) 
A3977b

$$$$
C8169-P93
     RDKit          3D

 14 14  0  0  0  0  0  0  0  0999 V2000
    7.2405   13.3286   22.4855 O   0  0  0  0  0  0  0  0  0  0  0  0
    8.5632   13.4234   23.0499 S   0  0  0  0  0  0  0  0  0  0  0  0
    9.6441   12.6127   22.5639 O   0  0  0  0  0  0  0  0  0  0  0  0
    8.3557   13.1299   24.6988 N   0  0  0  0  0  0  0  0  0  0  0  0
    8.1208   11.7003   25.0434 C   0  0  0  0  0  0  0  0  0  0  0  0
    9.0874   10.8267   24.2735 C   0  0  0  0  0  0  0  0  0  0  0  0
    9.3859    9.4795   24.7875 C   0  0  0  0  0  0  0  0  0  0  0  0
   10.3487    8.5997   23.6119 Cl  0  0  0  0  0  0  0  0  0  0  0  0
    9.1229   14.9927   23.0763 N   0  0  0  0  0  0  0  0  0  0  0  0
   10.4972   15.1355   23.6355 C   0  0  0  0  0  0  0  0  0  0  0  0
   11.6037   14.7279   22.6652 C   0  0  0  0  0  0  0  0  0  0  0  0
   11.4476   15.4079   21.3185 C   0  0  0  0  0  0  0  0  0  0  0  0
   10.0467   15.2307   20.7570 C   0  0  0  0  0  0  0  0  0  0  0  0
    8.9910   15.6889   21.7562 C   0  0  0  0  0  0  0  0  0  0  0  0
  1  2  2  0
  2  3  2  0
  2  4  1  0
  4  5  1  0
  5  6  1  0
  6  7  1  0
  7  8  1  0
  2  9  1  0
  9 10  1  0
 10 11  1  0
 11 12  1  0
 12 13  1  0
 13 14  1  0
 14  9  1  0
M  END
>  <inchikey>  (36) 
XZDJAODRDBHFTF-UHFFFAOYSA-N

>  <energy_score>  (36) 
-67.933579

>  <subsites>  (36) 
1 - Active Site

>  <alias>  (36) 
C8169-P93

>  <tags>  (36) 
openbind_a71ev2a_c1_scaffolds,BulkDock Fragalysis export,openbind_a71ev2a_c1_knitwork_impure,fragmenstein_placed

>  <distance_score>  (36) 
0.964302

>  <placement_batch>  (36) 
openbind_a71ev2a_c1_knitwork_impure

>  <name>  (36) 
C8169-P93

>  <ref_mols>  (36) 
A0719a,A0926a

>  <smiles>  (36) 
O=S(=O)(NCCCCl)N1CCCCC1

>  <HIPPO Compound ID>  (36) 
18032

>  <HIPPO Pose ID>  (36) 
338130

>  <ref_pdb>  (36) 
A3977b

$$$$
C901-P354
     RDKit          3D

 23 26  0  0  0  0  0  0  0  0999 V2000
   25.5014   16.3013   24.8713 O   0  0  0  0  0  0  0  0  0  0  0  0
   24.7465   17.1928   24.9352 C   0  0  0  0  0  0  0  0  0  0  0  0
   25.0807   18.5892   24.4260 C   0  0  0  0  0  0  0  0  0  0  0  0
   24.2557   18.9725   23.1980 C   0  0  0  0  0  0  0  0  0  0  0  0
   24.9121   20.0800   22.4131 C   0  0  0  0  0  0  0  0  0  0  0  0
   24.4431   21.4083   22.4951 C   0  0  0  0  0  0  0  0  0  0  0  0
   25.0576   22.4303   21.7626 C   0  0  0  0  0  0  0  0  0  0  0  0
   26.1284   22.0957   20.9618 C   0  0  0  0  0  0  0  0  0  0  0  0
   26.5952   20.8076   20.8835 C   0  0  0  0  0  0  0  0  0  0  0  0
   26.0146   19.7828   21.5965 C   0  0  0  0  0  0  0  0  0  0  0  0
   27.6577   20.6885   20.0457 O   0  0  0  0  0  0  0  0  0  0  0  0
   27.7623   22.0346   19.5505 C   0  0  0  0  0  0  0  0  0  0  0  0
   26.8372   22.9514   20.1773 O   0  0  0  0  0  0  0  0  0  0  0  0
   23.3071   17.2535   25.5170 N   0  0  0  0  0  0  0  0  0  0  0  0
   22.5187   16.2718   26.0196 C   0  0  0  0  0  0  0  0  0  0  0  0
   22.8048   14.8956   26.1020 C   0  0  0  0  0  0  0  0  0  0  0  0
   21.6703   14.3311   26.6368 C   0  0  0  0  0  0  0  0  0  0  0  0
   20.8194   15.3718   26.8833 N   0  0  0  0  0  0  0  0  0  0  0  0
   19.4567   15.2261   27.4305 C   0  0  0  0  0  0  0  0  0  0  0  0
   19.1007   16.3068   28.4860 C   0  0  0  0  0  0  0  0  0  0  0  0
   18.3774   15.1921   29.2698 C   0  0  0  0  0  0  0  0  0  0  0  0
   19.3363   14.1971   28.5853 C   0  0  0  0  0  0  0  0  0  0  0  0
   21.3074   16.5628   26.4936 N   0  0  0  0  0  0  0  0  0  0  0  0
  1  2  2  0
  2  3  1  0
  3  4  1  0
  4  5  1  0
  5  6  2  0
  6  7  1  0
  7  8  2  0
  8  9  1  0
  9 10  2  0
  9 11  1  0
 11 12  1  0
 12 13  1  0
  2 14  1  0
 14 15  1  0
 15 16  1  0
 16 17  2  0
 17 18  1  0
 18 19  1  0
 19 20  1  0
 20 21  1  0
 21 22  1  0
 18 23  1  0
 10  5  1  0
 23 15  2  0
 13  8  1  0
 22 19  1  0
M  END
>  <inchikey>  (37) 
INAHVQSNTWKORJ-UHFFFAOYSA-N

>  <energy_score>  (37) 
-36.393345

>  <subsites>  (37) 
1 - Active Site,5 - A3181/A/202/1

>  <alias>  (37) 
C901-P354

>  <tags>  (37) 
openbind_a71ev2a_c1_scaffolds,BulkDock Fragalysis export,openbind_a71ev2a_c1_knitwork_impure,fragmenstein_placed

>  <distance_score>  (37) 
0.681625

>  <placement_batch>  (37) 
openbind_a71ev2a_c1_knitwork_impure

>  <name>  (37) 
C901-P354

>  <ref_mols>  (37) 
A0351b,A4415a

>  <smiles>  (37) 
O=C(CCc1ccc2c(c1)OCO2)Nc1ccn(C2CCC2)n1

>  <HIPPO Compound ID>  (37) 
3775

>  <HIPPO Pose ID>  (37) 
338239

>  <ref_pdb>  (37) 
A3977b

$$$$
C6260-P558
     RDKit          3D

 12 14  0  0  0  0  0  0  0  0999 V2000
    9.3498   10.6533   23.7701 C   0  0  0  0  0  0  0  0  0  0  0  0
    8.4772   10.6946   24.8369 C   0  0  0  0  0  0  0  0  0  0  0  0
    8.1093   11.8373   25.4495 N   0  0  0  0  0  0  0  0  0  0  0  0
    8.6153   12.9934   24.9424 C   0  0  0  0  0  0  0  0  0  0  0  0
    9.5020   13.0833   23.8689 C   0  0  0  0  0  0  0  0  0  0  0  0
   10.0186   14.3927   23.3125 C   0  0  2  0  0  0  0  0  0  0  0  0
    9.3573   14.9268   22.0589 C   0  0  0  0  0  0  0  0  0  0  0  0
   10.4477   14.9629   21.0622 N   0  0  0  0  0  0  0  0  0  0  0  0
   11.6848   15.2935   21.7922 C   0  0  0  0  0  0  0  0  0  0  0  0
   11.4873   14.6401   23.1248 C   0  0  1  0  0  0  0  0  0  0  0  0
   10.7637   15.3371   24.2369 C   0  0  0  0  0  0  0  0  0  0  0  0
    9.8586   11.8603   23.2966 C   0  0  0  0  0  0  0  0  0  0  0  0
  1  2  2  0
  2  3  1  0
  3  4  2  0
  4  5  1  0
  6  5  1  1
  6  7  1  0
  7  8  1  0
  8  9  1  0
 10  9  1  6
 10 11  1  0
  5 12  2  0
 12  1  1  0
 10  6  1  0
 11  6  1  0
M  END
>  <inchikey>  (38) 
ZBXBLXXYJIHBMH-UHFFFAOYSA-N

>  <energy_score>  (38) 
-14.270344

>  <subsites>  (38) 
1 - Active Site

>  <alias>  (38) 
C6260-P558

>  <tags>  (38) 
openbind_a71ev2a_c1_scaffolds,BulkDock Fragalysis export,openbind_a71ev2a_c1_knitwork_impure,fragmenstein_placed

>  <distance_score>  (38) 
0.948819

>  <placement_batch>  (38) 
openbind_a71ev2a_c1_knitwork_impure

>  <name>  (38) 
C6260-P558

>  <ref_mols>  (38) 
A5079b,A2629a

>  <smiles>  (38) 
c1cncc([C@]23CNC[C@H]2C3)c1

>  <HIPPO Compound ID>  (38) 
6013

>  <HIPPO Pose ID>  (38) 
338297

>  <ref_pdb>  (38) 
A3977b

$$$$
C6285-P558
     RDKit          3D

 12 13  0  0  0  0  0  0  0  0999 V2000
    9.4557   10.7967   23.6134 C   0  0  0  0  0  0  0  0  0  0  0  0
    8.6174   10.6332   24.6987 C   0  0  0  0  0  0  0  0  0  0  0  0
    8.1486   11.6595   25.4327 N   0  0  0  0  0  0  0  0  0  0  0  0
    8.5006   12.9059   25.0138 C   0  0  0  0  0  0  0  0  0  0  0  0
    9.3241   13.1974   23.9205 C   0  0  0  0  0  0  0  0  0  0  0  0
    9.6247   14.5153   23.5874 N   0  0  0  0  0  0  0  0  0  0  0  0
   10.7996   15.0661   24.2879 C   0  0  0  0  0  0  0  0  0  0  0  0
   12.0906   14.9009   23.4606 C   0  0  0  0  0  0  0  0  0  0  0  0
   11.9944   15.5583   22.1538 N   0  0  0  0  0  0  0  0  0  0  0  0
   10.8682   14.9702   21.4046 C   0  0  0  0  0  0  0  0  0  0  0  0
    9.5212   14.9624   22.1714 C   0  0  0  0  0  0  0  0  0  0  0  0
    9.8160   12.0924   23.2362 C   0  0  0  0  0  0  0  0  0  0  0  0
  1  2  2  0
  2  3  1  0
  3  4  2  0
  4  5  1  0
  5  6  1  0
  6  7  1  0
  7  8  1  0
  8  9  1  0
  9 10  1  0
 10 11  1  0
  5 12  2  0
 12  1  1  0
 11  6  1  0
M  END
>  <inchikey>  (39) 
KGAKJVPCKUCLKV-UHFFFAOYSA-N

>  <energy_score>  (39) 
-13.615116

>  <subsites>  (39) 
1 - Active Site

>  <alias>  (39) 
C6285-P558

>  <tags>  (39) 
openbind_a71ev2a_c1_scaffolds,BulkDock Fragalysis export,openbind_a71ev2a_c1_knitwork_impure,fragmenstein_placed

>  <distance_score>  (39) 
0.878857

>  <placement_batch>  (39) 
openbind_a71ev2a_c1_knitwork_impure

>  <name>  (39) 
C6285-P558

>  <ref_mols>  (39) 
A5079b,A2629a

>  <smiles>  (39) 
c1cncc(N2CCNCC2)c1

>  <HIPPO Compound ID>  (39) 
2609

>  <HIPPO Pose ID>  (39) 
338303

>  <ref_pdb>  (39) 
A3977b

$$$$
C709-P558
     RDKit          3D

 12 13  0  0  0  0  0  0  0  0999 V2000
    9.4561   10.7900   23.6176 C   0  0  0  0  0  0  0  0  0  0  0  0
    8.6075   10.6031   24.6913 C   0  0  0  0  0  0  0  0  0  0  0  0
    8.1071   11.6153   25.4243 N   0  0  0  0  0  0  0  0  0  0  0  0
    8.4377   12.8707   25.0173 C   0  0  0  0  0  0  0  0  0  0  0  0
    9.2701   13.1843   23.9374 C   0  0  0  0  0  0  0  0  0  0  0  0
    9.5533   14.5061   23.6145 N   0  0  0  0  0  0  0  0  0  0  0  0
   10.7217   15.0833   24.2946 C   0  0  0  0  0  0  0  0  0  0  0  0
   12.0199   14.9054   23.5071 C   0  0  0  0  0  0  0  0  0  0  0  0
   11.9502   15.7910   21.9267 S   0  0  0  0  0  0  0  0  0  0  0  0
   10.4578   14.9813   21.2747 C   0  0  0  0  0  0  0  0  0  0  0  0
    9.2729   15.0098   22.2483 C   0  0  0  0  0  0  0  0  0  0  0  0
    9.7956   12.0947   23.2528 C   0  0  0  0  0  0  0  0  0  0  0  0
  1  2  2  0
  2  3  1  0
  3  4  2  0
  4  5  1  0
  5  6  1  0
  6  7  1  0
  7  8  1  0
  8  9  1  0
  9 10  1  0
 10 11  1  0
  5 12  2  0
 12  1  1  0
 11  6  1  0
M  END
>  <inchikey>  (40) 
MTBPSJNSQYHQEE-UHFFFAOYSA-N

>  <energy_score>  (40) 
-13.92538

>  <subsites>  (40) 
1 - Active Site

>  <alias>  (40) 
C709-P558

>  <tags>  (40) 
openbind_a71ev2a_c1_scaffolds,BulkDock Fragalysis export,openbind_a71ev2a_c1_knitwork_impure,fragmenstein_placed

>  <distance_score>  (40) 
0.938556

>  <placement_batch>  (40) 
openbind_a71ev2a_c1_knitwork_impure

>  <name>  (40) 
C709-P558

>  <ref_mols>  (40) 
A5079b,A2629a

>  <smiles>  (40) 
c1cncc(N2CCSCC2)c1

>  <HIPPO Compound ID>  (40) 
6170

>  <HIPPO Pose ID>  (40) 
338309

>  <ref_pdb>  (40) 
A3977b

$$$$
C725-P558
     RDKit          3D

 12 13  0  0  0  0  0  0  0  0999 V2000
    8.4624   10.5566   24.7949 C   0  0  0  0  0  0  0  0  0  0  0  0
    9.3326   10.6250   23.7234 C   0  0  0  0  0  0  0  0  0  0  0  0
    9.7278   11.8761   23.2494 C   0  0  0  0  0  0  0  0  0  0  0  0
    9.2731   13.0391   23.8549 C   0  0  0  0  0  0  0  0  0  0  0  0
    9.5348   14.2882   23.3374 N   0  0  0  0  0  0  0  0  0  0  0  0
   10.1617   15.2502   24.2343 C   0  0  0  0  0  0  0  0  0  0  0  0
   11.6730   15.3022   23.9946 C   0  0  0  0  0  0  0  0  0  0  0  0
   12.0885   15.8408   22.3033 S   0  0  0  0  0  0  0  0  0  0  0  0
   11.0875   14.6229   21.3954 C   0  0  0  0  0  0  0  0  0  0  0  0
    9.6430   14.5748   21.8988 C   0  0  0  0  0  0  0  0  0  0  0  0
    8.5055   12.9632   24.9646 N   0  0  0  0  0  0  0  0  0  0  0  0
    8.0820   11.7465   25.3794 C   0  0  0  0  0  0  0  0  0  0  0  0
  1  2  2  0
  2  3  1  0
  3  4  2  0
  4  5  1  0
  5  6  1  0
  6  7  1  0
  7  8  1  0
  8  9  1  0
  9 10  1  0
  4 11  1  0
 11 12  2  0
 12  1  1  0
 10  5  1  0
M  END
>  <inchikey>  (41) 
TYVKHTBDVKDANR-UHFFFAOYSA-N

>  <energy_score>  (41) 
-8.571863

>  <subsites>  (41) 
1 - Active Site

>  <alias>  (41) 
C725-P558

>  <tags>  (41) 
openbind_a71ev2a_c1_scaffolds,BulkDock Fragalysis export,openbind_a71ev2a_c1_knitwork_impure,fragmenstein_placed

>  <distance_score>  (41) 
0.930597

>  <placement_batch>  (41) 
openbind_a71ev2a_c1_knitwork_impure

>  <name>  (41) 
C725-P558

>  <ref_mols>  (41) 
A5079b,A2629a

>  <smiles>  (41) 
c1ccc(N2CCSCC2)nc1

>  <HIPPO Compound ID>  (41) 
14936

>  <HIPPO Pose ID>  (41) 
338315

>  <ref_pdb>  (41) 
A3977b

$$$$
C961-P289
     RDKit          3D

 18 20  0  0  0  0  0  0  0  0999 V2000
   25.9250   12.3187   -2.1671 O   0  0  0  0  0  0  0  0  0  0  0  0
   25.0352   11.8292   -1.5864 C   0  0  0  0  0  0  0  0  0  0  0  0
   23.7610   11.1038   -2.1162 N   0  0  0  0  0  0  0  0  0  0  0  0
   23.3055   10.9294   -3.3945 N   0  0  0  0  0  0  0  0  0  0  0  0
   22.9684    9.6401   -3.7074 C   0  0  0  0  0  0  0  0  0  0  0  0
   22.6558    8.6926   -2.8805 N   0  0  0  0  0  0  0  0  0  0  0  0
   22.4092    7.4438   -3.6304 C   0  0  0  0  0  0  0  0  0  0  0  0
   21.9896    7.7669   -5.0535 C   0  0  0  0  0  0  0  0  0  0  0  0
   22.9464    9.2490   -5.4114 S   0  0  0  0  0  0  0  0  0  0  0  0
   24.9945   11.7049   -0.0564 C   0  0  1  0  0  0  0  0  0  0  0  0
   26.3354   12.0828    0.5938 C   0  0  0  0  0  0  0  0  0  0  0  0
   26.2179   12.0018    2.1202 C   0  0  0  0  0  0  0  0  0  0  0  0
   25.1467   12.9574    2.6539 C   0  0  0  0  0  0  0  0  0  0  0  0
   23.9835   13.0266    1.8005 N   0  0  0  0  0  0  0  0  0  0  0  0
   22.8061   13.6502    2.0492 C   0  0  0  0  0  0  0  0  0  0  0  0
   22.0247   13.5290    0.9997 N   0  0  0  0  0  0  0  0  0  0  0  0
   22.7077   12.8045    0.0462 N   0  0  0  0  0  0  0  0  0  0  0  0
   23.8969   12.5203    0.5326 C   0  0  0  0  0  0  0  0  0  0  0  0
  1  2  2  0
  2  3  1  0
  3  4  1  0
  4  5  1  0
  5  6  2  0
  6  7  1  0
  7  8  1  0
  8  9  1  0
 10  2  1  6
 10 11  1  0
 11 12  1  0
 12 13  1  0
 13 14  1  0
 14 15  1  0
 15 16  2  0
 16 17  1  0
 17 18  2  0
  9  5  1  0
 18 10  1  0
 18 14  1  0
M  END
>  <inchikey>  (42) 
FUNCVLSABIHRON-UHFFFAOYSA-N

>  <energy_score>  (42) 
-43.937348

>  <subsites>  (42) 
6 - A0486/A/147/1,1 - Active Site

>  <alias>  (42) 
C961-P289

>  <tags>  (42) 
openbind_a71ev2a_c1_scaffolds,BulkDock Fragalysis export,openbind_a71ev2a_c1_knitwork_impure,fragmenstein_placed

>  <distance_score>  (42) 
0.439188

>  <placement_batch>  (42) 
openbind_a71ev2a_c1_knitwork_impure

>  <name>  (42) 
C961-P289

>  <ref_mols>  (42) 
A4305a,A0239a

>  <smiles>  (42) 
O=C(NNC1=NCCS1)[C@H]1CCCn2cnnc21

>  <HIPPO Compound ID>  (42) 
43497

>  <HIPPO Pose ID>  (42) 
339308

>  <ref_pdb>  (42) 
A3977b

$$$$
C4728-P277
     RDKit          3D

  9  9  0  0  0  0  0  0  0  0999 V2000
    8.0931   11.0225   25.6861 O   0  0  0  0  0  0  0  0  0  0  0  0
    7.9697   12.1536   25.2243 C   0  0  0  0  0  0  0  0  0  0  0  0
    9.1363   13.0802   25.0029 C   0  0  0  0  0  0  0  0  0  0  0  0
    9.0147   13.7527   23.6423 C   0  0  0  0  0  0  0  0  0  0  0  0
    9.9848   14.8237   23.4706 N   0  0  0  0  0  0  0  0  0  0  0  0
   11.3885   14.3849   23.3717 C   0  0  0  0  0  0  0  0  0  0  0  0
   12.0156   15.4184   22.5042 C   0  0  0  0  0  0  0  0  0  0  0  0
   11.0733   16.1237   21.8752 C   0  0  0  0  0  0  0  0  0  0  0  0
    9.7223   15.6425   22.2665 C   0  0  0  0  0  0  0  0  0  0  0  0
  1  2  2  0
  2  3  1  0
  3  4  1  0
  4  5  1  0
  5  6  1  0
  6  7  1  0
  7  8  2  0
  8  9  1  0
  9  5  1  0
M  END
>  <inchikey>  (43) 
HCFLACFMBGGTGN-UHFFFAOYSA-N

>  <energy_score>  (43) 
-12.434737

>  <subsites>  (43) 
1 - Active Site

>  <alias>  (43) 
C4728-P277

>  <tags>  (43) 
openbind_a71ev2a_c1_scaffolds,BulkDock Fragalysis export,openbind_a71ev2a_c1_knitwork_impure,fragmenstein_placed

>  <distance_score>  (43) 
0.996913

>  <placement_batch>  (43) 
openbind_a71ev2a_c1_knitwork_impure

>  <name>  (43) 
C4728-P277

>  <ref_mols>  (43) 
A1775a,A4032b

>  <smiles>  (43) 
O=CCCN1CC=CC1

>  <HIPPO Compound ID>  (43) 
5648

>  <HIPPO Pose ID>  (43) 
340548

>  <ref_pdb>  (43) 
A3977b

$$$$
C15044-P77
     RDKit          3D

 15 15  0  0  0  0  0  0  0  0999 V2000
   11.6423   14.2988   18.6912 N   0  0  0  0  0  0  0  0  0  0  0  0
   11.1436   14.9132   19.5367 C   0  0  0  0  0  0  0  0  0  0  0  0
   10.6419   15.7043   20.6516 C   0  0  0  0  0  0  0  0  0  0  0  0
   11.6717   15.7569   21.7830 C   0  0  0  0  0  0  0  0  0  0  0  0
   11.8469   14.5080   22.6414 C   0  0  0  0  0  0  0  0  0  0  0  0
   10.8587   14.3928   23.7350 N   0  0  0  0  0  0  0  0  0  0  0  0
    9.2999   13.9885   23.2607 S   0  0  0  0  0  0  0  0  0  0  0  0
    8.4936   15.1625   23.4722 O   0  0  0  0  0  0  0  0  0  0  0  0
    9.3801   13.4008   21.9513 O   0  0  0  0  0  0  0  0  0  0  0  0
    8.8172   12.6758   24.3389 C   0  0  0  0  0  0  0  0  0  0  0  0
    9.2226   11.3883   24.0310 C   0  0  0  0  0  0  0  0  0  0  0  0
    8.5584   10.3564   24.6659 C   0  0  0  0  0  0  0  0  0  0  0  0
    7.5215   10.6483   25.5484 C   0  0  0  0  0  0  0  0  0  0  0  0
    7.2079   11.9727   25.8012 C   0  0  0  0  0  0  0  0  0  0  0  0
    7.8497   13.0046   25.2301 N   0  0  0  0  0  0  0  0  0  0  0  0
  1  2  3  0
  2  3  1  0
  3  4  1  0
  4  5  1  0
  5  6  1  0
  6  7  1  0
  7  8  2  0
  7  9  2  0
  7 10  1  0
 10 11  2  0
 11 12  1  0
 12 13  2  0
 13 14  1  0
 14 15  2  0
 15 10  1  0
M  END
>  <inchikey>  (44) 
YEVKEYTWDZTQPG-UHFFFAOYSA-N

>  <energy_score>  (44) 
-24.958802

>  <subsites>  (44) 
1 - Active Site

>  <alias>  (44) 
C15044-P77

>  <tags>  (44) 
openbind_a71ev2a_c1_scaffolds,BulkDock Fragalysis export,openbind_a71ev2a_c1_knitwork_impure,fragmenstein_placed

>  <distance_score>  (44) 
0.949938

>  <placement_batch>  (44) 
openbind_a71ev2a_c1_knitwork_impure

>  <name>  (44) 
C15044-P77

>  <ref_mols>  (44) 
A4274b,A0719a

>  <smiles>  (44) 
N#CCCCNS(=O)(=O)c1ccccn1

>  <HIPPO Compound ID>  (44) 
3501

>  <HIPPO Pose ID>  (44) 
340789

>  <ref_pdb>  (44) 
A3977b

$$$$
C8150-P344
     RDKit          3D

 17 17  0  0  0  0  0  0  0  0999 V2000
   11.7882   15.8810   21.9140 C   0  0  0  0  0  0  0  0  0  0  0  0
   10.8636   15.1315   20.9575 C   0  0  0  0  0  0  0  0  0  0  0  0
   11.4360   15.1111   19.5418 C   0  0  0  0  0  0  0  0  0  0  0  0
    9.4739   15.7614   20.9034 C   0  0  0  0  0  0  0  0  0  0  0  0
    8.7399   15.6428   22.1335 N   0  0  0  0  0  0  0  0  0  0  0  0
    7.4330   14.8729   22.4562 C   0  0  0  0  0  0  0  0  0  0  0  0
    6.7934   14.1539   21.7917 O   0  0  0  0  0  0  0  0  0  0  0  0
    7.0425   15.1699   23.8785 C   0  0  0  0  0  0  0  0  0  0  0  0
    8.2572   14.6628   25.0678 S   0  0  0  0  0  0  0  0  0  0  0  0
    7.6367   14.7842   26.3798 O   0  0  0  0  0  0  0  0  0  0  0  0
    9.4740   15.4204   24.8280 O   0  0  0  0  0  0  0  0  0  0  0  0
    8.6468   12.9308   24.8559 C   0  0  0  0  0  0  0  0  0  0  0  0
    7.4908   12.0511   25.3026 C   0  0  0  0  0  0  0  0  0  0  0  0
    7.8365   10.5781   25.1978 C   0  0  0  0  0  0  0  0  0  0  0  0
    8.3946   10.2110   23.9140 N   0  0  0  0  0  0  0  0  0  0  0  0
    9.4991   11.0368   23.4619 C   0  0  0  0  0  0  0  0  0  0  0  0
    9.1667   12.5196   23.4921 C   0  0  0  0  0  0  0  0  0  0  0  0
  1  2  1  0
  2  3  1  0
  2  4  1  0
  4  5  1  0
  5  6  1  0
  6  7  2  0
  6  8  1  0
  8  9  1  0
  9 10  2  0
  9 11  2  0
  9 12  1  0
 12 13  1  0
 13 14  1  0
 14 15  1  0
 15 16  1  0
 16 17  1  0
 17 12  1  0
M  END
>  <inchikey>  (45) 
HXGBIHXJNUTVEU-UHFFFAOYSA-N

>  <energy_score>  (45) 
-14.368738

>  <subsites>  (45) 
1 - Active Site

>  <alias>  (45) 
C8150-P344

>  <tags>  (45) 
openbind_a71ev2a_c1_scaffolds,BulkDock Fragalysis export,openbind_a71ev2a_c1_knitwork_impure,fragmenstein_placed

>  <distance_score>  (45) 
0.888262

>  <placement_batch>  (45) 
openbind_a71ev2a_c1_knitwork_impure

>  <name>  (45) 
C8150-P344

>  <ref_mols>  (45) 
A4274b,A0719a

>  <smiles>  (45) 
CC(C)CNC(=O)CS(=O)(=O)C1CCNCC1

>  <HIPPO Compound ID>  (45) 
86322

>  <HIPPO Pose ID>  (45) 
340823

>  <ref_pdb>  (45) 
A3977b

$$$$
C14594-P616
     RDKit          3D

 23 24  0  0  0  0  0  0  0  0999 V2000
    6.6468   -9.1649   11.1985 C   0  0  0  0  0  0  0  0  0  0  0  0
    7.8487   -8.5482   10.4743 C   0  0  0  0  0  0  0  0  0  0  0  0
    8.0294   -9.2547    9.1221 C   0  0  0  0  0  0  0  0  0  0  0  0
    8.7223   -8.3763    8.2338 O   0  0  0  0  0  0  0  0  0  0  0  0
    7.6157   -7.0520   10.1989 C   0  0  0  0  0  0  0  0  0  0  0  0
    6.8779   -6.8015    9.0151 O   0  0  0  0  0  0  0  0  0  0  0  0
    9.0054   -8.5913   11.3777 N   0  0  0  0  0  0  0  0  0  0  0  0
   10.2934   -9.4510   11.3191 C   0  0  0  0  0  0  0  0  0  0  0  0
   10.5879  -10.2896   10.6045 O   0  0  0  0  0  0  0  0  0  0  0  0
   11.1085   -8.7649   12.4569 N   0  0  0  0  0  0  0  0  0  0  0  0
   12.4332   -8.9295   12.8383 C   0  0  0  0  0  0  0  0  0  0  0  0
   13.2819   -9.7934   12.1634 C   0  0  0  0  0  0  0  0  0  0  0  0
   14.5822   -9.9057   12.6199 C   0  0  0  0  0  0  0  0  0  0  0  0
   15.0639   -9.2464   13.6961 N   0  0  0  0  0  0  0  0  0  0  0  0
   14.2080   -8.4224   14.3305 C   0  0  0  0  0  0  0  0  0  0  0  0
   14.6299   -7.7349   15.4503 O   0  0  0  0  0  0  0  0  0  0  0  0
   15.5372   -8.4842   16.2774 C   0  0  0  0  0  0  0  0  0  0  0  0
   14.7746   -9.5716   17.0517 C   0  0  0  0  0  0  0  0  0  0  0  0
   15.6547  -10.2668   18.0848 C   0  0  0  0  0  0  0  0  0  0  0  0
   16.2860   -9.2661   19.0464 C   0  0  0  0  0  0  0  0  0  0  0  0
   17.0534   -8.1834   18.2963 C   0  0  0  0  0  0  0  0  0  0  0  0
   16.1773   -7.4913   17.2577 C   0  0  0  0  0  0  0  0  0  0  0  0
   12.9061   -8.2015   13.9240 C   0  0  0  0  0  0  0  0  0  0  0  0
  1  2  1  0
  2  3  1  0
  3  4  1  0
  2  5  1  0
  5  6  1  0
  2  7  1  0
  7  8  1  0
  8  9  2  0
  8 10  1  0
 10 11  1  0
 11 12  2  0
 12 13  1  0
 13 14  2  0
 14 15  1  0
 15 16  1  0
 16 17  1  0
 17 18  1  0
 18 19  1  0
 19 20  1  0
 20 21  1  0
 21 22  1  0
 15 23  2  0
 23 11  1  0
 22 17  1  0
M  END
>  <inchikey>  (46) 
MEPCMNAIXFKGGU-UHFFFAOYSA-N

>  <energy_score>  (46) 
-19.396086

>  <subsites>  (46) 
1 - Active Site,2 - A3977/A/202/1

>  <alias>  (46) 
C14594-P616

>  <tags>  (46) 
openbind_a71ev2a_c1_scaffolds,BulkDock Fragalysis export,openbind_a71ev2a_c1_knitwork_impure,fragmenstein_placed

>  <distance_score>  (46) 
0.689108

>  <placement_batch>  (46) 
openbind_a71ev2a_c1_knitwork_impure

>  <name>  (46) 
C14594-P616

>  <ref_mols>  (46) 
A5424b,A0395a

>  <smiles>  (46) 
CC(CO)(CO)NC(=O)Nc1ccnc(OC2CCCCC2)c1

>  <HIPPO Compound ID>  (46) 
1402

>  <HIPPO Pose ID>  (46) 
341024

>  <ref_pdb>  (46) 
A3977b

$$$$
C26225-P277
     RDKit          3D

 15 15  0  0  0  0  0  0  0  0999 V2000
   12.5471   15.8350   22.5084 C   0  0  0  0  0  0  0  0  0  0  0  0
   12.0309   14.6482   23.3089 C   0  0  0  0  0  0  0  0  0  0  0  0
   10.4896   14.6140   23.4320 C   0  0  0  0  0  0  0  0  0  0  0  0
    9.9508   14.8698   22.0850 C   0  0  0  0  0  0  0  0  0  0  0  0
    9.5830   15.1749   21.0313 N   0  0  0  0  0  0  0  0  0  0  0  0
    9.9483   15.6890   24.4106 C   0  0  0  0  0  0  0  0  0  0  0  0
   10.4431   15.5843   25.8496 C   0  0  0  0  0  0  0  0  0  0  0  0
   10.0722   13.2185   23.9464 C   0  0  0  0  0  0  0  0  0  0  0  0
   10.8585   12.4954   24.4348 O   0  0  0  0  0  0  0  0  0  0  0  0
    8.5165   13.0691   23.7832 N   0  0  0  0  0  0  0  0  0  0  0  0
    7.6576   12.0963   24.2495 N   0  0  0  0  0  0  0  0  0  0  0  0
    8.2958   10.8186   24.5830 C   0  0  0  0  0  0  0  0  0  0  0  0
    7.2215   10.1018   25.3767 C   0  0  0  0  0  0  0  0  0  0  0  0
    6.4803   11.2084   26.1091 C   0  0  0  0  0  0  0  0  0  0  0  0
    6.9689   12.5079   25.4795 C   0  0  0  0  0  0  0  0  0  0  0  0
  1  2  1  0
  2  3  1  0
  3  4  1  0
  4  5  3  0
  3  6  1  0
  6  7  1  0
  3  8  1  0
  8  9  2  0
  8 10  1  0
 10 11  1  0
 11 12  1  0
 12 13  1  0
 13 14  1  0
 14 15  1  0
 15 11  1  0
M  END
>  <inchikey>  (47) 
JBBGRUAMKVJKBX-UHFFFAOYSA-N

>  <energy_score>  (47) 
-7.929098

>  <subsites>  (47) 
1 - Active Site

>  <alias>  (47) 
C26225-P277

>  <tags>  (47) 
openbind_a71ev2a_c1_scaffolds,BulkDock Fragalysis export,openbind_a71ev2a_c1_knitwork_impure,fragmenstein_placed

>  <distance_score>  (47) 
0.960583

>  <placement_batch>  (47) 
openbind_a71ev2a_c1_knitwork_impure

>  <name>  (47) 
C26225-P277

>  <ref_mols>  (47) 
A1445a,A4032b

>  <smiles>  (47) 
CCC(C#N)(CC)C(=O)NN1CCCC1

>  <HIPPO Compound ID>  (47) 
7155

>  <HIPPO Pose ID>  (47) 
342248

>  <ref_pdb>  (47) 
A3977b

$$$$
C7479-P325
     RDKit          3D

 23 24  0  0  0  0  0  0  0  0999 V2000
    3.6120   12.5658   18.0197 C   0  0  0  0  0  0  0  0  0  0  0  0
    3.4540   12.6744   19.5328 C   0  0  0  0  0  0  0  0  0  0  0  0
    2.4279   11.6591   20.0260 C   0  0  0  0  0  0  0  0  0  0  0  0
    3.0704   14.0447   19.9401 C   0  0  0  0  0  0  0  0  0  0  0  0
    2.0679   14.6230   19.2151 O   0  0  0  0  0  0  0  0  0  0  0  0
    1.9461   15.8586   19.7459 C   0  0  0  0  0  0  0  0  0  0  0  0
    2.7529   16.1172   20.7525 N   0  0  0  0  0  0  0  0  0  0  0  0
    3.4540   14.9367   20.9275 C   0  0  0  0  0  0  0  0  0  0  0  0
    4.4101   14.7588   22.0667 C   0  0  0  0  0  0  0  0  0  0  0  0
    5.6625   15.4289   21.7557 N   0  0  0  0  0  0  0  0  0  0  0  0
    7.0884   14.7030   22.2476 S   0  0  0  0  0  0  0  0  0  0  0  0
    6.9186   13.3190   21.8255 O   0  0  0  0  0  0  0  0  0  0  0  0
    8.0752   15.4431   21.4889 O   0  0  0  0  0  0  0  0  0  0  0  0
    6.9683   14.9580   23.7543 N   0  0  0  0  0  0  0  0  0  0  0  0
    8.2991   14.7399   24.4929 S   0  0  2  0  0  0  0  0  0  0  0  0
    8.0279   15.3483   26.1458 C   0  0  0  0  0  0  0  0  0  0  0  0
    9.5655   15.3151   24.0863 O   0  0  0  0  0  0  0  0  0  0  0  0
    8.6179   13.0006   24.8164 C   0  0  0  0  0  0  0  0  0  0  0  0
    9.4942   12.3668   23.7377 C   0  0  0  0  0  0  0  0  0  0  0  0
    9.8455   10.9257   24.0717 C   0  0  0  0  0  0  0  0  0  0  0  0
    8.6556   10.0714   24.4535 C   0  0  0  0  0  0  0  0  0  0  0  0
    7.6861   10.7463   25.4116 C   0  0  0  0  0  0  0  0  0  0  0  0
    7.3524   12.1840   25.0462 C   0  0  0  0  0  0  0  0  0  0  0  0
  1  2  1  0
  2  3  1  0
  2  4  1  0
  4  5  1  0
  5  6  1  0
  6  7  2  0
  7  8  1  0
  8  9  1  0
  9 10  1  0
 10 11  1  0
 11 12  2  0
 11 13  2  0
 11 14  1  0
 14 15  2  0
 15 16  1  1
 15 17  2  0
 15 18  1  0
 18 19  1  0
 19 20  1  0
 20 21  1  0
 21 22  1  0
 22 23  1  0
  8  4  2  0
 23 18  1  0
M  END
>  <inchikey>  (48) 
BVGBDOZXIVOWDC-UHFFFAOYSA-N

>  <energy_score>  (48) 
-243.257513

>  <subsites>  (48) 
1 - Active Site

>  <alias>  (48) 
C7479-P325

>  <tags>  (48) 
openbind_a71ev2a_c1_scaffolds,BulkDock Fragalysis export,openbind_a71ev2a_c1_knitwork_impure,fragmenstein_placed

>  <distance_score>  (48) 
0.89557

>  <placement_batch>  (48) 
openbind_a71ev2a_c1_knitwork_impure

>  <name>  (48) 
C7479-P325

>  <ref_mols>  (48) 
A3623a,A4368a

>  <smiles>  (48) 
CC(C)c1ocnc1CNS(=O)(=O)N=[S@](C)(=O)C1CCCCC1

>  <HIPPO Compound ID>  (48) 
17682

>  <HIPPO Pose ID>  (48) 
343210

>  <ref_pdb>  (48) 
A3977b

$$$$
C10705-P198
     RDKit          3D

 16 17  0  0  0  0  0  0  0  0999 V2000
    9.5909   11.1360   23.0228 C   0  0  0  0  0  0  0  0  0  0  0  0
    9.4076   10.2438   24.0923 O   0  0  0  0  0  0  0  0  0  0  0  0
    8.0995    9.7244   24.2372 C   0  0  0  0  0  0  0  0  0  0  0  0
    7.1496   10.6604   24.9642 C   0  0  0  0  0  0  0  0  0  0  0  0
    7.2437   12.0393   25.0098 C   0  0  0  0  0  0  0  0  0  0  0  0
    5.9789   12.7954   25.8669 S   0  0  0  0  0  0  0  0  0  0  0  0
    5.2886   11.2936   26.2920 C   0  0  0  0  0  0  0  0  0  0  0  0
    4.1207   11.2135   27.1797 C   0  0  0  0  0  0  0  0  0  0  0  0
    3.9937   10.3018   27.8924 O   0  0  0  0  0  0  0  0  0  0  0  0
    3.2179   12.4398   26.9590 N   0  0  0  0  0  0  0  0  0  0  0  0
    2.0174   12.8500   27.6361 C   0  0  2  0  0  0  0  0  0  0  0  0
    1.0576   13.5481   26.6809 C   0  0  0  0  0  0  0  0  0  0  0  0
    2.4050   13.7572   28.7702 C   0  0  0  0  0  0  0  0  0  0  0  0
    1.5717   13.8140   30.0265 C   0  0  0  0  0  0  0  0  0  0  0  0
    2.9335   13.1778   30.0594 C   0  0  0  0  0  0  0  0  0  0  0  0
    6.0048   10.2473   25.7364 C   0  0  0  0  0  0  0  0  0  0  0  0
  1  2  1  0
  2  3  1  0
  3  4  1  0
  4  5  2  0
  5  6  1  0
  6  7  1  0
  7  8  1  0
  8  9  2  0
  8 10  1  0
 10 11  1  0
 11 12  1  6
 11 13  1  0
 13 14  1  0
 14 15  1  0
  7 16  2  0
 16  4  1  0
 15 13  1  0
M  END
>  <inchikey>  (49) 
UERDZVKTYWOYRH-UHFFFAOYSA-N

>  <energy_score>  (49) 
-11.301445

>  <subsites>  (49) 
1 - Active Site

>  <alias>  (49) 
C10705-P198

>  <tags>  (49) 
openbind_a71ev2a_c1_scaffolds,BulkDock Fragalysis export,openbind_a71ev2a_c1_knitwork_impure,fragmenstein_placed

>  <distance_score>  (49) 
0.738285

>  <placement_batch>  (49) 
openbind_a71ev2a_c1_knitwork_impure

>  <name>  (49) 
C10705-P198

>  <ref_mols>  (49) 
A4237b,A3618a

>  <smiles>  (49) 
COCc1csc(C(=O)N[C@H](C)C2CC2)c1

>  <HIPPO Compound ID>  (49) 
973

>  <HIPPO Pose ID>  (49) 
343358

>  <ref_pdb>  (49) 
A3977b

$$$$
C7529-P324
     RDKit          3D

 13 13  0  0  0  0  0  0  0  0999 V2000
   10.8035   12.9084   24.9180 O   0  0  0  0  0  0  0  0  0  0  0  0
    9.7250   12.9928   24.4531 C   0  0  0  0  0  0  0  0  0  0  0  0
    9.0442   14.1757   23.6577 N   0  0  0  0  0  0  0  0  0  0  0  0
    9.5064   15.4609   23.3778 N   0  0  0  0  0  0  0  0  0  0  0  0
   10.8987   15.7245   23.7663 C   0  0  0  0  0  0  0  0  0  0  0  0
   11.9414   15.1391   22.8138 C   0  0  0  0  0  0  0  0  0  0  0  0
   11.6929   15.5942   21.3823 C   0  0  0  0  0  0  0  0  0  0  0  0
   10.2585   15.2788   20.9793 C   0  0  0  0  0  0  0  0  0  0  0  0
    9.2602   15.8635   21.9786 C   0  0  0  0  0  0  0  0  0  0  0  0
    8.6676   11.8616   24.5438 C   0  0  0  0  0  0  0  0  0  0  0  0
    8.4986   11.4113   25.8113 F   0  0  0  0  0  0  0  0  0  0  0  0
    7.4324   12.2702   24.1382 F   0  0  0  0  0  0  0  0  0  0  0  0
    9.1844   10.4909   23.5706 Cl  0  0  0  0  0  0  0  0  0  0  0  0
  1  2  2  0
  2  3  1  0
  3  4  1  0
  4  5  1  0
  5  6  1  0
  6  7  1  0
  7  8  1  0
  8  9  1  0
  2 10  1  0
 10 11  1  0
 10 12  1  0
 10 13  1  0
  9  4  1  0
M  END
>  <inchikey>  (50) 
BVTPDBRQZWYODH-UHFFFAOYSA-N

>  <energy_score>  (50) 
-5.658589

>  <subsites>  (50) 
1 - Active Site

>  <alias>  (50) 
C7529-P324

>  <tags>  (50) 
openbind_a71ev2a_c1_scaffolds,BulkDock Fragalysis export,openbind_a71ev2a_c1_knitwork_impure,fragmenstein_placed

>  <distance_score>  (50) 
0.944252

>  <placement_batch>  (50) 
openbind_a71ev2a_c1_knitwork_impure

>  <name>  (50) 
C7529-P324

>  <ref_mols>  (50) 
A1445a,A4365b

>  <smiles>  (50) 
O=C(NN1CCCCC1)C(F)(F)Cl

>  <HIPPO Compound ID>  (50) 
27254

>  <HIPPO Pose ID>  (50) 
343633

>  <ref_pdb>  (50) 
A3977b

$$$$
C15278-P321
     RDKit          3D

 17 17  0  0  0  0  0  0  0  0999 V2000
   10.7791   15.4114   19.1495 C   0  0  0  0  0  0  0  0  0  0  0  0
   11.1808   14.9022   20.5193 C   0  0  0  0  0  0  0  0  0  0  0  0
   11.0787   16.2376   21.7382 S   0  0  0  0  0  0  0  0  0  0  0  0
   11.7951   15.4081   23.1811 C   0  0  0  0  0  0  0  0  0  0  0  0
   11.0947   14.1229   23.6047 C   0  0  0  0  0  0  0  0  0  0  0  0
   11.6796   13.2135   24.0487 O   0  0  0  0  0  0  0  0  0  0  0  0
    9.5696   14.3446   23.4208 N   0  0  0  0  0  0  0  0  0  0  0  0
    8.4597   13.4558   23.6570 C   0  0  1  0  0  0  0  0  0  0  0  0
    8.5680   12.8277   25.0419 C   0  0  0  0  0  0  0  0  0  0  0  0
    7.1082   14.1582   23.5105 C   0  0  0  0  0  0  0  0  0  0  0  0
    6.8301   14.7421   22.1240 C   0  0  0  0  0  0  0  0  0  0  0  0
    5.3636   15.0305   21.9257 C   0  0  0  0  0  0  0  0  0  0  0  0
    4.5031   14.1113   21.3208 C   0  0  0  0  0  0  0  0  0  0  0  0
    3.1506   14.4051   21.1741 C   0  0  0  0  0  0  0  0  0  0  0  0
    2.6912   15.6180   21.6472 C   0  0  0  0  0  0  0  0  0  0  0  0
    3.4846   16.5370   22.2352 N   0  0  0  0  0  0  0  0  0  0  0  0
    4.7976   16.2200   22.3672 C   0  0  0  0  0  0  0  0  0  0  0  0
  1  2  1  0
  2  3  1  0
  3  4  1  0
  4  5  1  0
  5  6  2  0
  5  7  1  0
  7  8  1  0
  8  9  1  1
  8 10  1  0
 10 11  1  0
 11 12  1  0
 12 13  2  0
 13 14  1  0
 14 15  2  0
 15 16  1  0
 16 17  2  0
 17 12  1  0
M  END
>  <inchikey>  (51) 
VEAOSVDTZUAADO-UHFFFAOYSA-N

>  <energy_score>  (51) 
-23.922536

>  <subsites>  (51) 
1 - Active Site,5 - A3181/A/202/1

>  <alias>  (51) 
C15278-P321

>  <tags>  (51) 
openbind_a71ev2a_c1_scaffolds,BulkDock Fragalysis export,openbind_a71ev2a_c1_knitwork_impure,fragmenstein_placed

>  <distance_score>  (51) 
0.973363

>  <placement_batch>  (51) 
openbind_a71ev2a_c1_knitwork_impure

>  <name>  (51) 
C15278-P321

>  <ref_mols>  (51) 
A4350a,A3181b

>  <smiles>  (51) 
CCSCC(=O)N[C@@H](C)CCc1cccnc1

>  <HIPPO Compound ID>  (51) 
137292

>  <HIPPO Pose ID>  (51) 
343815

>  <ref_pdb>  (51) 
A3977b

$$$$
C7646-P558
     RDKit          3D

 13 14  0  0  0  0  0  0  0  0999 V2000
    5.7839   15.6218   22.0236 N   0  0  0  0  0  0  0  0  0  0  0  0
    7.2584   14.9170   22.3876 S   0  0  0  0  0  0  0  0  0  0  0  0
    8.2822   15.7182   21.7672 O   0  0  0  0  0  0  0  0  0  0  0  0
    7.1077   13.5088   22.0935 O   0  0  0  0  0  0  0  0  0  0  0  0
    7.3092   15.2092   24.1538 C   0  0  0  0  0  0  0  0  0  0  0  0
    8.6541   14.8798   24.7981 C   0  0  0  0  0  0  0  0  0  0  0  0
    9.3632   13.5960   24.3492 C   0  0  0  0  0  0  0  0  0  0  0  0
    8.8573   12.3330   24.8522 N   0  0  0  0  0  0  0  0  0  0  0  0
    9.2455   11.2064   23.9794 C   0  0  0  0  0  0  0  0  0  0  0  0
    8.2902   10.1267   24.3642 C   0  0  1  0  0  0  0  0  0  0  0  0
    7.9177    9.8117   25.7785 C   0  0  0  0  0  0  0  0  0  0  0  0
    7.1357   10.7923   25.0248 C   0  0  1  0  0  0  0  0  0  0  0  0
    7.4211   12.2416   25.1096 C   0  0  0  0  0  0  0  0  0  0  0  0
  1  2  1  0
  2  3  2  0
  2  4  2  0
  2  5  1  0
  5  6  1  0
  6  7  1  0
  7  8  1  0
  8  9  1  0
 10  9  1  1
 10 11  1  0
 12 11  1  1
 12 13  1  0
 13  8  1  0
 12 10  1  0
M  END
>  <inchikey>  (52) 
ZJUWFSGBSHLZFO-UHFFFAOYSA-N

>  <energy_score>  (52) 
-73.631304

>  <subsites>  (52) 
1 - Active Site

>  <alias>  (52) 
C7646-P558

>  <tags>  (52) 
openbind_a71ev2a_c1_scaffolds,BulkDock Fragalysis export,openbind_a71ev2a_c1_knitwork_impure,fragmenstein_placed

>  <distance_score>  (52) 
0.95507

>  <placement_batch>  (52) 
openbind_a71ev2a_c1_knitwork_impure

>  <name>  (52) 
C7646-P558

>  <ref_mols>  (52) 
A0719a,A5079b

>  <smiles>  (52) 
NS(=O)(=O)CCCN1C[C@H]2C[C@H]2C1

>  <HIPPO Compound ID>  (52) 
7469

>  <HIPPO Pose ID>  (52) 
345050

>  <ref_pdb>  (52) 
A3977b

$$$$
C9546-P405
     RDKit          3D

  9  9  0  0  0  0  0  0  0  0999 V2000
   10.2514   14.3141   26.0220 O   0  0  0  0  0  0  0  0  0  0  0  0
    9.1769   14.8125   26.3380 C   0  0  0  0  0  0  0  0  0  0  0  0
    7.8953   14.6933   25.5482 C   0  0  0  0  0  0  0  0  0  0  0  0
    8.0417   13.8646   24.2795 C   0  0  0  0  0  0  0  0  0  0  0  0
    8.1123   12.3865   24.5107 C   0  0  0  0  0  0  0  0  0  0  0  0
    7.1306   11.5897   25.1827 C   0  0  0  0  0  0  0  0  0  0  0  0
    7.3537   10.2819   25.2721 N   0  0  0  0  0  0  0  0  0  0  0  0
    8.7836    9.9480   24.4854 S   0  0  0  0  0  0  0  0  0  0  0  0
    9.1285   11.5640   24.0610 C   0  0  0  0  0  0  0  0  0  0  0  0
  1  2  2  0
  2  3  1  0
  3  4  1  0
  4  5  1  0
  5  6  1  0
  6  7  2  0
  7  8  1  0
  8  9  1  0
  9  5  2  0
M  END
>  <inchikey>  (53) 
DPUSSHZYAUIWGW-UHFFFAOYSA-N

>  <energy_score>  (53) 
-23.664939

>  <subsites>  (53) 
1 - Active Site

>  <alias>  (53) 
C9546-P405

>  <tags>  (53) 
openbind_a71ev2a_c1_scaffolds,BulkDock Fragalysis export,openbind_a71ev2a_c1_knitwork_impure,fragmenstein_placed

>  <distance_score>  (53) 
0.728803

>  <placement_batch>  (53) 
openbind_a71ev2a_c1_knitwork_impure

>  <name>  (53) 
C9546-P405

>  <ref_mols>  (53) 
A0556a,A4570a

>  <smiles>  (53) 
O=CCCc1cnsc1

>  <HIPPO Compound ID>  (53) 
15823

>  <HIPPO Pose ID>  (53) 
345379

>  <ref_pdb>  (53) 
A3977b

$$$$
C9547-P405
     RDKit          3D

  9  9  0  0  0  0  0  0  0  0999 V2000
    7.5554   16.1605   25.0487 C   0  0  0  0  0  0  0  0  0  0  0  0
    7.3194   14.6726   25.2500 C   0  0  0  0  0  0  0  0  0  0  0  0
    8.4356   13.8210   24.6664 C   0  0  0  0  0  0  0  0  0  0  0  0
    9.4483   14.3248   24.1855 O   0  0  0  0  0  0  0  0  0  0  0  0
    8.2860   12.3695   24.7155 C   0  0  0  0  0  0  0  0  0  0  0  0
    7.2532   11.6062   25.3424 C   0  0  0  0  0  0  0  0  0  0  0  0
    7.3445   10.2798   25.2824 N   0  0  0  0  0  0  0  0  0  0  0  0
    8.7180    9.8941   24.4215 S   0  0  0  0  0  0  0  0  0  0  0  0
    9.1880   11.5048   24.1218 C   0  0  0  0  0  0  0  0  0  0  0  0
  1  2  1  0
  2  3  1  0
  3  4  2  0
  3  5  1  0
  5  6  1  0
  6  7  2  0
  7  8  1  0
  8  9  1  0
  9  5  2  0
M  END
>  <inchikey>  (54) 
IGFLHWNYLMXGMG-UHFFFAOYSA-N

>  <energy_score>  (54) 
-18.852832

>  <subsites>  (54) 
1 - Active Site

>  <alias>  (54) 
C9547-P405

>  <tags>  (54) 
openbind_a71ev2a_c1_scaffolds,BulkDock Fragalysis export,openbind_a71ev2a_c1_knitwork_impure,fragmenstein_placed

>  <distance_score>  (54) 
0.681213

>  <placement_batch>  (54) 
openbind_a71ev2a_c1_knitwork_impure

>  <name>  (54) 
C9547-P405

>  <ref_mols>  (54) 
A0556a,A4570a

>  <smiles>  (54) 
CCC(=O)c1cnsc1

>  <HIPPO Compound ID>  (54) 
6528

>  <HIPPO Pose ID>  (54) 
345381

>  <ref_pdb>  (54) 
A3977b

$$$$
C9548-P405
     RDKit          3D

  9  9  0  0  0  0  0  0  0  0999 V2000
    6.8636   13.3510   22.3123 O   0  0  0  0  0  0  0  0  0  0  0  0
    6.5102   14.1713   23.1558 C   0  0  0  0  0  0  0  0  0  0  0  0
    7.2288   14.4278   24.4653 C   0  0  0  0  0  0  0  0  0  0  0  0
    8.4682   13.5573   24.6487 C   0  0  0  0  0  0  0  0  0  0  0  0
    8.1818   12.1047   24.8068 C   0  0  0  0  0  0  0  0  0  0  0  0
    7.1434   11.4721   25.5244 C   0  0  0  0  0  0  0  0  0  0  0  0
    7.1908   10.1433   25.4261 N   0  0  0  0  0  0  0  0  0  0  0  0
    8.2933    9.8773   24.6274 O   0  0  0  0  0  0  0  0  0  0  0  0
    8.8716   11.0469   24.2612 C   0  0  0  0  0  0  0  0  0  0  0  0
  1  2  2  0
  2  3  1  0
  3  4  1  0
  4  5  1  0
  5  6  1  0
  6  7  2  0
  7  8  1  0
  8  9  1  0
  9  5  2  0
M  END
>  <inchikey>  (55) 
PGILFXQYSGPPJO-UHFFFAOYSA-N

>  <energy_score>  (55) 
-13.757114

>  <subsites>  (55) 
1 - Active Site

>  <alias>  (55) 
C9548-P405

>  <tags>  (55) 
openbind_a71ev2a_c1_scaffolds,BulkDock Fragalysis export,openbind_a71ev2a_c1_knitwork_impure,fragmenstein_placed

>  <distance_score>  (55) 
0.671592

>  <placement_batch>  (55) 
openbind_a71ev2a_c1_knitwork_impure

>  <name>  (55) 
C9548-P405

>  <ref_mols>  (55) 
A0556a,A4570a

>  <smiles>  (55) 
O=CCCc1cnoc1

>  <HIPPO Compound ID>  (55) 
16512

>  <HIPPO Pose ID>  (55) 
345383

>  <ref_pdb>  (55) 
A3977b

$$$$
C8161-P191
     RDKit          3D

 17 17  0  0  0  0  0  0  0  0999 V2000
   11.6788   15.1452   25.6903 C   0  0  0  0  0  0  0  0  0  0  0  0
   10.2837   14.8090   25.1577 C   0  0  0  0  0  0  0  0  0  0  0  0
   10.1339   14.3518   23.6591 C   0  0  1  0  0  0  0  0  0  0  0  0
   11.2856   13.4008   23.3422 C   0  0  0  0  0  0  0  0  0  0  0  0
    8.7453   13.5985   23.5388 C   0  0  2  0  0  0  0  0  0  0  0  0
    7.7800   14.1778   24.4487 O   0  0  0  0  0  0  0  0  0  0  0  0
    8.8035   12.1161   23.8726 C   0  0  0  0  0  0  0  0  0  0  0  0
    7.4746   11.7192   24.2251 O   0  0  0  0  0  0  0  0  0  0  0  0
    7.4827   10.6612   25.1692 C   0  0  0  0  0  0  0  0  0  0  0  0
    6.2139   10.7090   25.9986 C   0  0  0  0  0  0  0  0  0  0  0  0
    7.7569    9.3623   24.4485 C   0  0  0  0  0  0  0  0  0  0  0  0
   10.0720   15.4664   22.6875 N   0  0  0  0  0  0  0  0  0  0  0  0
   10.8178   16.6866   22.9279 C   0  0  0  0  0  0  0  0  0  0  0  0
   12.2579   16.6384   22.4398 C   0  0  0  0  0  0  0  0  0  0  0  0
   12.2841   16.3160   20.9587 C   0  0  0  0  0  0  0  0  0  0  0  0
   11.4787   15.0793   20.6198 C   0  0  0  0  0  0  0  0  0  0  0  0
   10.0860   15.1302   21.2520 C   0  0  0  0  0  0  0  0  0  0  0  0
  1  2  1  0
  2  3  1  0
  3  4  1  6
  3  5  1  0
  5  6  1  1
  5  7  1  0
  7  8  1  0
  8  9  1  0
  9 10  1  0
  9 11  1  0
  3 12  1  0
 12 13  1  0
 13 14  1  0
 14 15  1  0
 15 16  1  0
 16 17  1  0
 17 12  1  0
M  END
>  <inchikey>  (56) 
JBQKPGDVXBNGRB-UHFFFAOYSA-N

>  <energy_score>  (56) 
-79.796653

>  <subsites>  (56) 
1 - Active Site,5 - A3181/A/202/1

>  <alias>  (56) 
C8161-P191

>  <tags>  (56) 
openbind_a71ev2a_c1_scaffolds,BulkDock Fragalysis export,openbind_a71ev2a_c1_knitwork_impure,fragmenstein_placed

>  <distance_score>  (56) 
0.972832

>  <placement_batch>  (56) 
openbind_a71ev2a_c1_knitwork_impure

>  <name>  (56) 
C8161-P191

>  <ref_mols>  (56) 
A0719a,A0719b,A3509b

>  <smiles>  (56) 
CC[C@@](C)([C@H](O)COC(C)C)N1CCCCC1

>  <HIPPO Compound ID>  (56) 
31046

>  <HIPPO Pose ID>  (56) 
346705

>  <ref_pdb>  (56) 
A3706b

$$$$
C15027-P151
     RDKit          3D

 13 13  0  0  0  0  0  0  0  0999 V2000
   11.6782   14.9884   22.8637 C   0  0  0  0  0  0  0  0  0  0  0  0
   10.5535   14.9463   23.5887 C   0  0  0  0  0  0  0  0  0  0  0  0
    9.1779   15.1268   23.0171 C   0  0  0  0  0  0  0  0  0  0  0  0
    8.2761   13.9065   23.1633 C   0  0  0  0  0  0  0  0  0  0  0  0
    7.7948   13.3499   22.1681 O   0  0  0  0  0  0  0  0  0  0  0  0
    7.8639   13.4627   24.5798 C   0  0  2  0  0  0  0  0  0  0  0  0
    8.4957   14.1030   25.6712 O   0  0  0  0  0  0  0  0  0  0  0  0
    7.9359   11.9649   24.8090 C   0  0  0  0  0  0  0  0  0  0  0  0
    7.0311   11.3841   25.7094 C   0  0  0  0  0  0  0  0  0  0  0  0
    7.0228   10.0110   25.8670 C   0  0  0  0  0  0  0  0  0  0  0  0
    7.8549    9.1842   25.2090 N   0  0  0  0  0  0  0  0  0  0  0  0
    8.7459    9.7524   24.3643 C   0  0  0  0  0  0  0  0  0  0  0  0
    8.8375   11.1214   24.1494 C   0  0  0  0  0  0  0  0  0  0  0  0
  1  2  2  0
  2  3  1  0
  3  4  1  0
  4  5  2  0
  4  6  1  0
  6  7  1  1
  6  8  1  0
  8  9  2  0
  9 10  1  0
 10 11  2  0
 11 12  1  0
 12 13  2  0
 13  8  1  0
M  END
>  <inchikey>  (57) 
IIPNYHKMPRUJNY-UHFFFAOYSA-N

>  <energy_score>  (57) 
-9.452231

>  <subsites>  (57) 
1 - Active Site

>  <alias>  (57) 
C15027-P151

>  <tags>  (57) 
openbind_a71ev2a_c1_scaffolds,BulkDock Fragalysis export,openbind_a71ev2a_c1_knitwork_impure,fragmenstein_placed

>  <distance_score>  (57) 
0.785423

>  <placement_batch>  (57) 
openbind_a71ev2a_c1_knitwork_impure

>  <name>  (57) 
C15027-P151

>  <ref_mols>  (57) 
A0719a,A3194a

>  <smiles>  (57) 
C=CCC(=O)[C@H](O)c1ccncc1

>  <HIPPO Compound ID>  (57) 
16616

>  <HIPPO Pose ID>  (57) 
346796

>  <ref_pdb>  (57) 
A3706b

$$$$
C15044-P151
     RDKit          3D

 15 15  0  0  0  0  0  0  0  0999 V2000
   10.6091   15.1815   19.6792 N   0  0  0  0  0  0  0  0  0  0  0  0
   11.3098   15.5489   20.5246 C   0  0  0  0  0  0  0  0  0  0  0  0
   12.1118   16.0053   21.6583 C   0  0  0  0  0  0  0  0  0  0  0  0
   11.9963   15.0662   22.8604 C   0  0  0  0  0  0  0  0  0  0  0  0
   10.6242   15.0901   23.5290 C   0  0  0  0  0  0  0  0  0  0  0  0
    9.6889   14.2806   22.7515 N   0  0  0  0  0  0  0  0  0  0  0  0
    8.2718   13.7723   23.4972 S   0  0  0  0  0  0  0  0  0  0  0  0
    8.0437   14.6452   24.6257 O   0  0  0  0  0  0  0  0  0  0  0  0
    7.3304   13.5700   22.4142 O   0  0  0  0  0  0  0  0  0  0  0  0
    8.6372   12.1465   24.1201 C   0  0  0  0  0  0  0  0  0  0  0  0
    9.5187   11.3167   23.4511 C   0  0  0  0  0  0  0  0  0  0  0  0
    9.4428    9.9636   23.7425 C   0  0  0  0  0  0  0  0  0  0  0  0
    8.5229    9.5196   24.6885 C   0  0  0  0  0  0  0  0  0  0  0  0
    7.7341   10.4418   25.3536 C   0  0  0  0  0  0  0  0  0  0  0  0
    7.7759   11.7553   25.0976 N   0  0  0  0  0  0  0  0  0  0  0  0
  1  2  3  0
  2  3  1  0
  3  4  1  0
  4  5  1  0
  5  6  1  0
  6  7  1  0
  7  8  2  0
  7  9  2  0
  7 10  1  0
 10 11  2  0
 11 12  1  0
 12 13  2  0
 13 14  1  0
 14 15  2  0
 15 10  1  0
M  END
>  <inchikey>  (58) 
ISSFEYHUURQIMN-UHFFFAOYSA-N

>  <energy_score>  (58) 
-33.93071

>  <subsites>  (58) 
1 - Active Site

>  <alias>  (58) 
C15044-P151

>  <tags>  (58) 
openbind_a71ev2a_c1_scaffolds,BulkDock Fragalysis export,openbind_a71ev2a_c1_knitwork_impure,fragmenstein_placed

>  <distance_score>  (58) 
0.97313

>  <placement_batch>  (58) 
openbind_a71ev2a_c1_knitwork_impure

>  <name>  (58) 
C15044-P151

>  <ref_mols>  (58) 
A0719a,A3194a

>  <smiles>  (58) 
N#CCCCNS(=O)(=O)c1ccccn1

>  <HIPPO Compound ID>  (58) 
4708

>  <HIPPO Pose ID>  (58) 
346809

>  <ref_pdb>  (58) 
A3706b

$$$$
C15045-P151
     RDKit          3D

 15 15  0  0  0  0  0  0  0  0999 V2000
   11.5657   15.3956   20.2178 C   0  0  0  0  0  0  0  0  0  0  0  0
   11.5706   16.0229   21.4002 C   0  0  0  0  0  0  0  0  0  0  0  0
   11.7831   15.3296   22.7060 C   0  0  0  0  0  0  0  0  0  0  0  0
   10.4524   15.0400   23.3938 C   0  0  0  0  0  0  0  0  0  0  0  0
    9.6678   14.0108   22.5868 C   0  0  0  0  0  0  0  0  0  0  0  0
    8.3715   13.5485   23.1885 C   0  0  0  0  0  0  0  0  0  0  0  0
    7.3886   13.3478   22.4628 O   0  0  0  0  0  0  0  0  0  0  0  0
    8.3360   13.1854   24.6689 C   0  0  1  0  0  0  0  0  0  0  0  0
    7.3120   13.9809   25.2605 O   0  0  0  0  0  0  0  0  0  0  0  0
    8.0942   11.7059   24.8815 C   0  0  0  0  0  0  0  0  0  0  0  0
    7.1129   11.2527   25.7697 C   0  0  0  0  0  0  0  0  0  0  0  0
    6.9198    9.8934   25.9126 C   0  0  0  0  0  0  0  0  0  0  0  0
    7.6422    8.9684   25.2536 N   0  0  0  0  0  0  0  0  0  0  0  0
    8.6001    9.4097   24.4108 C   0  0  0  0  0  0  0  0  0  0  0  0
    8.8651   10.7511   24.2018 C   0  0  0  0  0  0  0  0  0  0  0  0
  1  2  2  0
  2  3  1  0
  3  4  1  0
  4  5  1  0
  5  6  1  0
  6  7  2  0
  6  8  1  0
  8  9  1  1
  8 10  1  0
 10 11  2  0
 11 12  1  0
 12 13  2  0
 13 14  1  0
 14 15  2  0
 15 10  1  0
M  END
>  <inchikey>  (59) 
YIPVAMALDHWMTF-UHFFFAOYSA-N

>  <energy_score>  (59) 
-15.644988

>  <subsites>  (59) 
1 - Active Site

>  <alias>  (59) 
C15045-P151

>  <tags>  (59) 
openbind_a71ev2a_c1_scaffolds,BulkDock Fragalysis export,openbind_a71ev2a_c1_knitwork_impure,fragmenstein_placed

>  <distance_score>  (59) 
0.786126

>  <placement_batch>  (59) 
openbind_a71ev2a_c1_knitwork_impure

>  <name>  (59) 
C15045-P151

>  <ref_mols>  (59) 
A0719a,A3194a

>  <smiles>  (59) 
C=CCCCC(=O)[C@@H](O)c1ccncc1

>  <HIPPO Compound ID>  (59) 
8425

>  <HIPPO Pose ID>  (59) 
346810

>  <ref_pdb>  (59) 
A3706b

$$$$
C15048-P151
     RDKit          3D

 16 16  0  0  0  0  0  0  0  0999 V2000
    8.1435   15.9433   26.8501 C   0  0  0  0  0  0  0  0  0  0  0  0
    8.4167   14.4772   26.5225 C   0  0  0  0  0  0  0  0  0  0  0  0
    7.6124   13.9367   25.3219 C   0  0  1  0  0  0  0  0  0  0  0  0
    7.9809   14.6837   24.1275 N   0  0  0  0  0  0  0  0  0  0  0  0
    7.1872   14.5851   22.6824 S   0  0  0  0  0  0  0  0  0  0  0  0
    7.9111   15.4996   21.8319 O   0  0  0  0  0  0  0  0  0  0  0  0
    7.0053   13.2164   22.2803 O   0  0  0  0  0  0  0  0  0  0  0  0
    5.6981   15.2772   23.0286 N   0  0  0  0  0  0  0  0  0  0  0  0
    4.6900   14.5690   23.8295 C   0  0  0  0  0  0  0  0  0  0  0  0
    5.0607   15.8607   21.8512 C   0  0  0  0  0  0  0  0  0  0  0  0
    7.7542   12.4190   25.2277 C   0  0  0  0  0  0  0  0  0  0  0  0
    8.7037   11.7720   24.4249 C   0  0  0  0  0  0  0  0  0  0  0  0
    8.7232   10.3801   24.3921 C   0  0  0  0  0  0  0  0  0  0  0  0
    7.9021    9.5981   25.1303 N   0  0  0  0  0  0  0  0  0  0  0  0
    7.0003   10.2298   25.9008 C   0  0  0  0  0  0  0  0  0  0  0  0
    6.8915   11.6095   25.9826 C   0  0  0  0  0  0  0  0  0  0  0  0
  1  2  1  0
  3  2  1  1
  3  4  1  0
  4  5  1  0
  5  6  2  0
  5  7  2  0
  5  8  1  0
  8  9  1  0
  8 10  1  0
  3 11  1  0
 11 12  2  0
 12 13  1  0
 13 14  2  0
 14 15  1  0
 15 16  2  0
 16 11  1  0
M  END
>  <inchikey>  (60) 
MLBVNWMSZZUEEK-UHFFFAOYSA-N

>  <energy_score>  (60) 
-26.767304

>  <subsites>  (60) 
1 - Active Site

>  <alias>  (60) 
C15048-P151

>  <tags>  (60) 
openbind_a71ev2a_c1_scaffolds,BulkDock Fragalysis export,openbind_a71ev2a_c1_knitwork_impure,fragmenstein_placed

>  <distance_score>  (60) 
0.961815

>  <placement_batch>  (60) 
openbind_a71ev2a_c1_knitwork_impure

>  <name>  (60) 
C15048-P151

>  <ref_mols>  (60) 
A0719a,A3194a

>  <smiles>  (60) 
CC[C@@H](NS(=O)(=O)N(C)C)c1ccncc1

>  <HIPPO Compound ID>  (60) 
16607

>  <HIPPO Pose ID>  (60) 
346812

>  <ref_pdb>  (60) 
A3706b

$$$$
C15066-P151
     RDKit          3D

 15 15  0  0  0  0  0  0  0  0999 V2000
   12.0798   15.6686   21.4046 C   0  0  0  0  0  0  0  0  0  0  0  0
   11.5330   14.7369   22.4772 C   0  0  0  0  0  0  0  0  0  0  0  0
   10.5853   15.4349   23.4509 C   0  0  0  0  0  0  0  0  0  0  0  0
    9.0945   15.4054   23.0688 C   0  0  1  0  0  0  0  0  0  0  0  0
    8.8156   15.9635   21.6793 C   0  0  0  0  0  0  0  0  0  0  0  0
    8.4308   14.0343   23.2217 C   0  0  0  0  0  0  0  0  0  0  0  0
    7.8451   13.4737   22.2868 O   0  0  0  0  0  0  0  0  0  0  0  0
    8.3978   13.4312   24.6303 C   0  0  1  0  0  0  0  0  0  0  0  0
    7.2272   13.9431   25.2613 O   0  0  0  0  0  0  0  0  0  0  0  0
    8.4149   11.9246   24.6186 C   0  0  0  0  0  0  0  0  0  0  0  0
    7.5739   11.1488   25.4227 C   0  0  0  0  0  0  0  0  0  0  0  0
    7.6483    9.7637   25.3589 C   0  0  0  0  0  0  0  0  0  0  0  0
    8.5791    9.1984   24.5025 C   0  0  0  0  0  0  0  0  0  0  0  0
    9.4213    9.9125   23.7354 N   0  0  0  0  0  0  0  0  0  0  0  0
    9.3229   11.2501   23.8050 C   0  0  0  0  0  0  0  0  0  0  0  0
  1  2  1  0
  2  3  1  0
  3  4  1  0
  4  5  1  6
  4  6  1  0
  6  7  2  0
  6  8  1  0
  8  9  1  6
  8 10  1  0
 10 11  2  0
 11 12  1  0
 12 13  2  0
 13 14  1  0
 14 15  2  0
 15 10  1  0
M  END
>  <inchikey>  (61) 
GMNUJJZGAJDXFW-UHFFFAOYSA-N

>  <energy_score>  (61) 
-25.78088

>  <subsites>  (61) 
1 - Active Site

>  <alias>  (61) 
C15066-P151

>  <tags>  (61) 
openbind_a71ev2a_c1_scaffolds,BulkDock Fragalysis export,openbind_a71ev2a_c1_knitwork_impure,fragmenstein_placed

>  <distance_score>  (61) 
0.943871

>  <placement_batch>  (61) 
openbind_a71ev2a_c1_knitwork_impure

>  <name>  (61) 
C15066-P151

>  <ref_mols>  (61) 
A0719a,A3194a

>  <smiles>  (61) 
CCC[C@@H](C)C(=O)[C@@H](O)c1cccnc1

>  <HIPPO Compound ID>  (61) 
94391

>  <HIPPO Pose ID>  (61) 
346824

>  <ref_pdb>  (61) 
A3706b

$$$$
C15067-P151
     RDKit          3D

 15 15  0  0  0  0  0  0  0  0999 V2000
   11.3372   15.1619   20.2573 C   0  0  0  0  0  0  0  0  0  0  0  0
   11.7371   15.8920   21.5308 C   0  0  0  0  0  0  0  0  0  0  0  0
   11.4464   15.0610   22.7774 C   0  0  0  0  0  0  0  0  0  0  0  0
   10.3517   15.5829   23.5409 O   0  0  0  0  0  0  0  0  0  0  0  0
    9.0738   15.4272   22.9331 C   0  0  0  0  0  0  0  0  0  0  0  0
    8.4588   14.0529   23.1587 C   0  0  0  0  0  0  0  0  0  0  0  0
    7.8068   13.4804   22.2801 O   0  0  0  0  0  0  0  0  0  0  0  0
    8.6590   13.4746   24.5699 C   0  0  1  0  0  0  0  0  0  0  0  0
    7.7826   14.0757   25.5142 O   0  0  0  0  0  0  0  0  0  0  0  0
    8.5410   11.9711   24.5847 C   0  0  0  0  0  0  0  0  0  0  0  0
    7.6302   11.2711   25.3803 C   0  0  0  0  0  0  0  0  0  0  0  0
    7.6251    9.8815   25.3568 C   0  0  0  0  0  0  0  0  0  0  0  0
    8.5330    9.2407   24.5284 C   0  0  0  0  0  0  0  0  0  0  0  0
    9.4161    9.8805   23.7412 N   0  0  0  0  0  0  0  0  0  0  0  0
    9.3960   11.2227   23.7782 C   0  0  0  0  0  0  0  0  0  0  0  0
  1  2  1  0
  2  3  1  0
  3  4  1  0
  4  5  1  0
  5  6  1  0
  6  7  2  0
  6  8  1  0
  8  9  1  1
  8 10  1  0
 10 11  2  0
 11 12  1  0
 12 13  2  0
 13 14  1  0
 14 15  2  0
 15 10  1  0
M  END
>  <inchikey>  (62) 
GKXYBOZHRPWQMF-UHFFFAOYSA-N

>  <energy_score>  (62) 
-18.837202

>  <subsites>  (62) 
1 - Active Site

>  <alias>  (62) 
C15067-P151

>  <tags>  (62) 
openbind_a71ev2a_c1_scaffolds,BulkDock Fragalysis export,openbind_a71ev2a_c1_knitwork_impure,fragmenstein_placed

>  <distance_score>  (62) 
0.833003

>  <placement_batch>  (62) 
openbind_a71ev2a_c1_knitwork_impure

>  <name>  (62) 
C15067-P151

>  <ref_mols>  (62) 
A0719a,A3194a

>  <smiles>  (62) 
CCCOCC(=O)[C@@H](O)c1cccnc1

>  <HIPPO Compound ID>  (62) 
137405

>  <HIPPO Pose ID>  (62) 
346826

>  <ref_pdb>  (62) 
A3706b

$$$$
C8138-P151
     RDKit          3D

 15 15  0  0  0  0  0  0  0  0999 V2000
   11.9256   16.0858   21.4334 C   0  0  0  0  0  0  0  0  0  0  0  0
   11.9782   14.9170   22.3998 C   0  0  0  0  0  0  0  0  0  0  0  0
   10.7983   14.7865   23.3659 C   0  0  1  0  0  0  0  0  0  0  0  0
   10.9019   15.8331   24.4743 C   0  0  0  0  0  0  0  0  0  0  0  0
    9.4367   14.8289   22.6559 C   0  0  0  0  0  0  0  0  0  0  0  0
    8.4103   13.8443   23.1896 C   0  0  0  0  0  0  0  0  0  0  0  0
    7.4976   13.4311   22.4622 O   0  0  0  0  0  0  0  0  0  0  0  0
    8.4774   13.4135   24.6571 C   0  0  1  0  0  0  0  0  0  0  0  0
    7.3226   13.9112   25.3255 O   0  0  0  0  0  0  0  0  0  0  0  0
    8.6809   11.8947   24.8593 C   0  0  0  0  0  0  0  0  0  0  0  0
    7.4052   11.1910   25.2994 C   0  0  0  0  0  0  0  0  0  0  0  0
    7.5732    9.6935   25.4176 C   0  0  0  0  0  0  0  0  0  0  0  0
    8.1515    9.1092   24.2326 N   0  0  0  0  0  0  0  0  0  0  0  0
    9.4111    9.6613   23.7924 C   0  0  0  0  0  0  0  0  0  0  0  0
    9.3822   11.1804   23.6977 C   0  0  0  0  0  0  0  0  0  0  0  0
  1  2  1  0
  2  3  1  0
  3  4  1  1
  3  5  1  0
  5  6  1  0
  6  7  2  0
  6  8  1  0
  8  9  1  1
  8 10  1  0
 10 11  1  0
 11 12  1  0
 12 13  1  0
 13 14  1  0
 14 15  1  0
 15 10  1  0
M  END
>  <inchikey>  (63) 
BELIZRHOJQZKIU-UHFFFAOYSA-N

>  <energy_score>  (63) 
-28.6726

>  <subsites>  (63) 
1 - Active Site

>  <alias>  (63) 
C8138-P151

>  <tags>  (63) 
openbind_a71ev2a_c1_scaffolds,BulkDock Fragalysis export,openbind_a71ev2a_c1_knitwork_impure,fragmenstein_placed

>  <distance_score>  (63) 
0.79455

>  <placement_batch>  (63) 
openbind_a71ev2a_c1_knitwork_impure

>  <name>  (63) 
C8138-P151

>  <ref_mols>  (63) 
A0719a,A3194a

>  <smiles>  (63) 
CC[C@@H](C)CC(=O)[C@@H](O)C1CCNCC1

>  <HIPPO Compound ID>  (63) 
6259

>  <HIPPO Pose ID>  (63) 
346834

>  <ref_pdb>  (63) 
A3706b

$$$$
C8155-P151
     RDKit          3D

 16 16  0  0  0  0  0  0  0  0999 V2000
   10.7299   15.3539   18.6555 C   0  0  0  0  0  0  0  0  0  0  0  0
   10.9516   15.7822   20.0624 C   0  0  0  0  0  0  0  0  0  0  0  0
   11.6453   15.0292   20.9221 C   0  0  0  0  0  0  0  0  0  0  0  0
   12.1440   15.5069   22.1798 C   0  0  0  0  0  0  0  0  0  0  0  0
   11.5456   15.5986   23.3741 C   0  0  0  0  0  0  0  0  0  0  0  0
   10.1786   15.2791   23.8657 C   0  0  0  0  0  0  0  0  0  0  0  0
    9.4364   14.5413   22.8709 N   0  0  0  0  0  0  0  0  0  0  0  0
    8.0826   13.7721   23.3976 S   0  0  0  0  0  0  0  0  0  0  0  0
    7.4257   14.6026   24.3733 O   0  0  0  0  0  0  0  0  0  0  0  0
    7.4021   13.2510   22.2363 O   0  0  0  0  0  0  0  0  0  0  0  0
    8.7152   12.4627   24.2436 N   0  0  0  0  0  0  0  0  0  0  0  0
    9.8556   11.7499   23.6445 C   0  0  0  0  0  0  0  0  0  0  0  0
    9.7180   10.2499   23.4589 C   0  0  0  0  0  0  0  0  0  0  0  0
    8.7009    9.5107   24.2885 C   0  0  0  0  0  0  0  0  0  0  0  0
    8.0777   10.3395   25.3794 C   0  0  0  0  0  0  0  0  0  0  0  0
    7.6505   11.7002   24.9166 C   0  0  0  0  0  0  0  0  0  0  0  0
  1  2  1  0
  2  3  2  3
  3  4  1  0
  4  5  2  3
  5  6  1  0
  6  7  1  0
  7  8  1  0
  8  9  2  0
  8 10  2  0
  8 11  1  0
 11 12  1  0
 12 13  1  0
 13 14  1  0
 14 15  1  0
 15 16  1  0
 16 11  1  0
M  END
>  <inchikey>  (64) 
UOUIWTUESXXDBU-UHFFFAOYSA-N

>  <energy_score>  (64) 
-27.83981

>  <subsites>  (64) 
1 - Active Site

>  <alias>  (64) 
C8155-P151

>  <tags>  (64) 
openbind_a71ev2a_c1_scaffolds,BulkDock Fragalysis export,openbind_a71ev2a_c1_knitwork_impure,fragmenstein_placed

>  <distance_score>  (64) 
0.947455

>  <placement_batch>  (64) 
openbind_a71ev2a_c1_knitwork_impure

>  <name>  (64) 
C8155-P151

>  <ref_mols>  (64) 
A0719a,A3194a

>  <smiles>  (64) 
CC=CC=CCNS(=O)(=O)N1CCCCC1

>  <HIPPO Compound ID>  (64) 
137594

>  <HIPPO Pose ID>  (64) 
346848

>  <ref_pdb>  (64) 
A3706b

$$$$
C8169-P151
     RDKit          3D

 14 14  0  0  0  0  0  0  0  0999 V2000
    7.7835   14.6486   24.5288 O   0  0  0  0  0  0  0  0  0  0  0  0
    8.2676   13.7683   23.4987 S   0  0  0  0  0  0  0  0  0  0  0  0
    7.4493   13.3263   22.3918 O   0  0  0  0  0  0  0  0  0  0  0  0
    9.6228   14.4168   22.8303 N   0  0  0  0  0  0  0  0  0  0  0  0
   10.6128   15.0936   23.6537 C   0  0  0  0  0  0  0  0  0  0  0  0
   11.9506   15.0530   22.9154 C   0  0  0  0  0  0  0  0  0  0  0  0
   12.0307   15.9785   21.7023 C   0  0  0  0  0  0  0  0  0  0  0  0
   10.9777   15.4710   20.3596 Cl  0  0  0  0  0  0  0  0  0  0  0  0
    8.8499   12.3804   24.2754 N   0  0  0  0  0  0  0  0  0  0  0  0
    9.8852   11.6273   23.5411 C   0  0  0  0  0  0  0  0  0  0  0  0
    9.8036   10.1115   23.5054 C   0  0  0  0  0  0  0  0  0  0  0  0
    8.6876    9.4238   24.2398 C   0  0  0  0  0  0  0  0  0  0  0  0
    8.0620   10.2553   25.3271 C   0  0  0  0  0  0  0  0  0  0  0  0
    7.7212   11.6476   24.8860 C   0  0  0  0  0  0  0  0  0  0  0  0
  1  2  2  0
  2  3  2  0
  2  4  1  0
  4  5  1  0
  5  6  1  0
  6  7  1  0
  7  8  1  0
  2  9  1  0
  9 10  1  0
 10 11  1  0
 11 12  1  0
 12 13  1  0
 13 14  1  0
 14  9  1  0
M  END
>  <inchikey>  (65) 
RJKAJKWADMVNQR-UHFFFAOYSA-N

>  <energy_score>  (65) 
-74.883451

>  <subsites>  (65) 
1 - Active Site

>  <alias>  (65) 
C8169-P151

>  <tags>  (65) 
openbind_a71ev2a_c1_scaffolds,BulkDock Fragalysis export,openbind_a71ev2a_c1_knitwork_impure,fragmenstein_placed

>  <distance_score>  (65) 
0.816358

>  <placement_batch>  (65) 
openbind_a71ev2a_c1_knitwork_impure

>  <name>  (65) 
C8169-P151

>  <ref_mols>  (65) 
A0719a,A3194a

>  <smiles>  (65) 
O=S(=O)(NCCCCl)N1CCCCC1

>  <HIPPO Compound ID>  (65) 
1791

>  <HIPPO Pose ID>  (65) 
346858

>  <ref_pdb>  (65) 
A3706b

$$$$
C8173-P151
     RDKit          3D

 17 17  0  0  0  0  0  0  0  0999 V2000
    7.6553   13.4703   22.0796 O   0  0  0  0  0  0  0  0  0  0  0  0
    8.2005   14.1218   22.8833 C   0  0  0  0  0  0  0  0  0  0  0  0
    9.1141   15.3663   22.7183 N   0  0  0  0  0  0  0  0  0  0  0  0
    9.6205   16.0062   21.5269 C   0  0  0  0  0  0  0  0  0  0  0  0
   10.4742   15.0247   20.7381 C   0  0  0  0  0  0  0  0  0  0  0  0
   10.6191   15.4609   19.3068 C   0  0  0  0  0  0  0  0  0  0  0  0
   11.3955   14.6023   18.6142 F   0  0  0  0  0  0  0  0  0  0  0  0
   11.1804   16.6738   19.2429 F   0  0  0  0  0  0  0  0  0  0  0  0
    9.4309   15.5551   18.6841 F   0  0  0  0  0  0  0  0  0  0  0  0
    8.1891   13.7632   24.3904 C   0  0  1  0  0  0  0  0  0  0  0  0
    7.3242   14.5616   25.0709 F   0  0  0  0  0  0  0  0  0  0  0  0
    7.7873   12.2901   24.5491 C   0  0  0  0  0  0  0  0  0  0  0  0
    7.1293   11.9403   25.8769 C   0  0  0  0  0  0  0  0  0  0  0  0
    6.8564   10.4433   25.9764 C   0  0  0  0  0  0  0  0  0  0  0  0
    8.0189    9.6270   25.6768 N   0  0  0  0  0  0  0  0  0  0  0  0
    8.6822    9.9161   24.4137 C   0  0  0  0  0  0  0  0  0  0  0  0
    8.9914   11.3942   24.2455 C   0  0  0  0  0  0  0  0  0  0  0  0
  1  2  2  0
  2  3  1  0
  3  4  1  0
  4  5  1  0
  5  6  1  0
  6  7  1  0
  6  8  1  0
  6  9  1  0
  2 10  1  0
 10 11  1  1
 10 12  1  0
 12 13  1  0
 13 14  1  0
 14 15  1  0
 15 16  1  0
 16 17  1  0
 17 12  1  0
M  END
>  <inchikey>  (66) 
CLRMICGDIZHILI-UHFFFAOYSA-N

>  <energy_score>  (66) 
-8.681609

>  <subsites>  (66) 
1 - Active Site

>  <alias>  (66) 
C8173-P151

>  <tags>  (66) 
openbind_a71ev2a_c1_scaffolds,BulkDock Fragalysis export,openbind_a71ev2a_c1_knitwork_impure,fragmenstein_placed

>  <distance_score>  (66) 
0.879135

>  <placement_batch>  (66) 
openbind_a71ev2a_c1_knitwork_impure

>  <name>  (66) 
C8173-P151

>  <ref_mols>  (66) 
A0719a,A3194a

>  <smiles>  (66) 
O=C(NCCC(F)(F)F)[C@@H](F)C1CCNCC1

>  <HIPPO Compound ID>  (66) 
20070

>  <HIPPO Pose ID>  (66) 
346861

>  <ref_pdb>  (66) 
A3706b

$$$$
C8174-P151
     RDKit          3D

 19 19  0  0  0  0  0  0  0  0999 V2000
   11.1556   15.0335   26.2781 C   0  0  0  0  0  0  0  0  0  0  0  0
   11.1752   15.7898   24.9639 C   0  0  0  0  0  0  0  0  0  0  0  0
   11.8824   15.0084   23.8534 C   0  0  0  0  0  0  0  0  0  0  0  0
   11.6993   15.6797   22.4853 C   0  0  0  0  0  0  0  0  0  0  0  0
   11.0961   14.7399   21.4226 C   0  0  2  0  0  0  0  0  0  0  0  0
   11.3646   15.2477   20.0054 C   0  0  0  0  0  0  0  0  0  0  0  0
   10.4295   16.3091   19.4425 C   0  0  0  0  0  0  0  0  0  0  0  0
    9.9080   17.3823   20.3899 C   0  0  0  0  0  0  0  0  0  0  0  0
    9.6178   14.3718   21.5911 C   0  0  0  0  0  0  0  0  0  0  0  0
    9.1746   14.5125   22.9743 N   0  0  0  0  0  0  0  0  0  0  0  0
    7.8416   13.6904   23.4840 S   0  0  0  0  0  0  0  0  0  0  0  0
    7.5015   14.3018   24.7451 O   0  0  0  0  0  0  0  0  0  0  0  0
    6.9312   13.6020   22.3688 O   0  0  0  0  0  0  0  0  0  0  0  0
    8.3268   12.1222   23.8055 N   0  0  0  0  0  0  0  0  0  0  0  0
    7.6165   11.5511   24.9803 C   0  0  0  0  0  0  0  0  0  0  0  0
    7.8735   10.0649   25.1649 C   0  0  0  0  0  0  0  0  0  0  0  0
    8.7328    9.3914   24.1124 C   0  0  0  0  0  0  0  0  0  0  0  0
    9.8276   10.2532   23.5167 C   0  0  0  0  0  0  0  0  0  0  0  0
    9.7362   11.7478   23.8034 C   0  0  0  0  0  0  0  0  0  0  0  0
  1  2  1  0
  2  3  1  0
  3  4  1  0
  5  4  1  1
  5  6  1  0
  6  7  1  0
  7  8  1  0
  5  9  1  0
  9 10  1  0
 10 11  1  0
 11 12  2  0
 11 13  2  0
 11 14  1  0
 14 15  1  0
 15 16  1  0
 16 17  1  0
 17 18  1  0
 18 19  1  0
 19 14  1  0
M  END
>  <inchikey>  (67) 
AVOIXSQDOULTDX-UHFFFAOYSA-N

>  <energy_score>  (67) 
-28.092077

>  <subsites>  (67) 
1 - Active Site

>  <alias>  (67) 
C8174-P151

>  <tags>  (67) 
openbind_a71ev2a_c1_scaffolds,BulkDock Fragalysis export,openbind_a71ev2a_c1_knitwork_impure,fragmenstein_placed

>  <distance_score>  (67) 
0.924325

>  <placement_batch>  (67) 
openbind_a71ev2a_c1_knitwork_impure

>  <name>  (67) 
C8174-P151

>  <ref_mols>  (67) 
A0719a,A3194a

>  <smiles>  (67) 
CCCC[C@H](CCC)CNS(=O)(=O)N1CCCCC1

>  <HIPPO Compound ID>  (67) 
7166

>  <HIPPO Pose ID>  (67) 
346862

>  <ref_pdb>  (67) 
A3706b

$$$$
C8176-P151
     RDKit          3D

 15 15  0  0  0  0  0  0  0  0999 V2000
    7.9204   14.2901   25.3723 C   0  0  0  0  0  0  0  0  0  0  0  0
    8.9621   13.5325   24.5440 C   0  0  2  0  0  0  0  0  0  0  0  0
   10.2321   13.9699   25.0506 O   0  0  0  0  0  0  0  0  0  0  0  0
    8.7348   13.9408   23.0712 C   0  0  0  0  0  0  0  0  0  0  0  0
    7.8936   13.3523   22.3778 O   0  0  0  0  0  0  0  0  0  0  0  0
    9.5739   15.0982   22.5513 C   0  0  0  0  0  0  0  0  0  0  0  0
    9.7584   16.0754   23.4779 F   0  0  0  0  0  0  0  0  0  0  0  0
    9.0227   15.6915   21.4608 F   0  0  0  0  0  0  0  0  0  0  0  0
   11.3155   14.3825   22.0498 Br  0  0  0  0  0  0  0  0  0  0  0  0
    8.9226   11.9947   24.7607 C   0  0  1  0  0  0  0  0  0  0  0  0
    7.5542   11.3773   25.0260 C   0  0  0  0  0  0  0  0  0  0  0  0
    7.6598    9.8733   25.2651 C   0  0  0  0  0  0  0  0  0  0  0  0
    8.5560    9.1411   24.2641 C   0  0  0  0  0  0  0  0  0  0  0  0
    9.8162    9.8155   24.0203 N   0  0  0  0  0  0  0  0  0  0  0  0
    9.6490   11.2097   23.6595 C   0  0  0  0  0  0  0  0  0  0  0  0
  2  1  1  1
  2  3  1  0
  2  4  1  0
  4  5  2  0
  4  6  1  0
  6  7  1  0
  6  8  1  0
  6  9  1  0
  2 10  1  0
 10 11  1  6
 11 12  1  0
 12 13  1  0
 13 14  1  0
 14 15  1  0
 15 10  1  0
M  END
>  <inchikey>  (68) 
IZSOYUYGRQMQRH-UHFFFAOYSA-N

>  <energy_score>  (68) 
-30.528525

>  <subsites>  (68) 
1 - Active Site

>  <alias>  (68) 
C8176-P151

>  <tags>  (68) 
openbind_a71ev2a_c1_scaffolds,BulkDock Fragalysis export,openbind_a71ev2a_c1_knitwork_impure,fragmenstein_placed

>  <distance_score>  (68) 
0.790586

>  <placement_batch>  (68) 
openbind_a71ev2a_c1_knitwork_impure

>  <name>  (68) 
C8176-P151

>  <ref_mols>  (68) 
A0719a,A3194a

>  <smiles>  (68) 
C[C@](O)(C(=O)C(F)(F)Br)[C@H]1CCCNC1

>  <HIPPO Compound ID>  (68) 
7163

>  <HIPPO Pose ID>  (68) 
346864

>  <ref_pdb>  (68) 
A3706b

$$$$
C8154-P180
     RDKit          3D

 15 15  0  0  0  0  0  0  0  0999 V2000
   11.0852   14.6898   18.7638 C   0  0  0  0  0  0  0  0  0  0  0  0
   10.1056   15.5332   19.5529 C   0  0  0  0  0  0  0  0  0  0  0  0
   10.2901   15.6335   21.0727 C   0  0  2  0  0  0  0  0  0  0  0  0
   11.5196   14.9577   21.6596 C   0  0  0  0  0  0  0  0  0  0  0  0
    8.7490   15.1556   21.8935 S   0  0  0  0  0  0  0  0  0  0  0  0
    7.8320   16.2687   21.8711 O   0  0  0  0  0  0  0  0  0  0  0  0
    8.3181   13.8418   21.4736 O   0  0  0  0  0  0  0  0  0  0  0  0
    9.2259   15.0338   23.5146 N   0  0  0  0  0  0  0  0  0  0  0  0
    8.2803   14.3037   24.3775 C   0  0  0  0  0  0  0  0  0  0  0  0
    8.8914   12.9736   24.8380 C   0  0  1  0  0  0  0  0  0  0  0  0
    7.7693   11.9484   25.0242 C   0  0  0  0  0  0  0  0  0  0  0  0
    8.3325   10.5758   25.3366 C   0  0  0  0  0  0  0  0  0  0  0  0
    9.4355   10.1353   24.3842 C   0  0  0  0  0  0  0  0  0  0  0  0
   10.5130   11.1248   24.3901 N   0  0  0  0  0  0  0  0  0  0  0  0
    9.9924   12.4131   23.9153 C   0  0  0  0  0  0  0  0  0  0  0  0
  1  2  1  0
  2  3  1  0
  3  4  1  1
  3  5  1  0
  5  6  2  0
  5  7  2  0
  5  8  1  0
  8  9  1  0
 10  9  1  6
 10 11  1  0
 11 12  1  0
 12 13  1  0
 13 14  1  0
 14 15  1  0
 15 10  1  0
M  END
>  <inchikey>  (69) 
ICJOJHQESJORQW-UHFFFAOYSA-N

>  <energy_score>  (69) 
-25.480069

>  <subsites>  (69) 
1 - Active Site

>  <alias>  (69) 
C8154-P180

>  <tags>  (69) 
openbind_a71ev2a_c1_scaffolds,BulkDock Fragalysis export,openbind_a71ev2a_c1_knitwork_impure,fragmenstein_placed

>  <distance_score>  (69) 
0.97544

>  <placement_batch>  (69) 
openbind_a71ev2a_c1_knitwork_impure

>  <name>  (69) 
C8154-P180

>  <ref_mols>  (69) 
A3417a,A0719a

>  <smiles>  (69) 
CC[C@H](C)S(=O)(=O)NC[C@H]1CCCNC1

>  <HIPPO Compound ID>  (69) 
25407

>  <HIPPO Pose ID>  (69) 
347017

>  <ref_pdb>  (69) 
A3706b

$$$$
C8160-P180
     RDKit          3D

 14 14  0  0  0  0  0  0  0  0999 V2000
   10.9936   11.1165   25.0426 C   0  0  0  0  0  0  0  0  0  0  0  0
    9.6533   10.4292   24.8048 C   0  0  0  0  0  0  0  0  0  0  0  0
    9.7412    9.5900   23.5406 C   0  0  0  0  0  0  0  0  0  0  0  0
    8.5388   11.4743   24.7576 C   0  0  0  0  0  0  0  0  0  0  0  0
    8.9706   12.4577   23.7892 N   0  0  0  0  0  0  0  0  0  0  0  0
    8.0354   13.7822   23.4906 S   0  0  0  0  0  0  0  0  0  0  0  0
    7.0626   13.3052   22.5408 O   0  0  0  0  0  0  0  0  0  0  0  0
    7.7274   14.4118   24.7484 O   0  0  0  0  0  0  0  0  0  0  0  0
    9.2688   14.5776   22.7364 N   0  0  0  0  0  0  0  0  0  0  0  0
   10.4530   14.9657   23.5125 C   0  0  0  0  0  0  0  0  0  0  0  0
   11.6718   14.7148   22.6402 C   0  0  0  0  0  0  0  0  0  0  0  0
   11.5597   15.5212   21.3532 C   0  0  0  0  0  0  0  0  0  0  0  0
   10.2439   15.2489   20.6217 C   0  0  0  0  0  0  0  0  0  0  0  0
    9.0321   15.3958   21.5427 C   0  0  0  0  0  0  0  0  0  0  0  0
  1  2  1  0
  2  3  1  0
  2  4  1  0
  4  5  1  0
  5  6  1  0
  6  7  2  0
  6  8  2  0
  6  9  1  0
  9 10  1  0
 10 11  1  0
 11 12  1  0
 12 13  1  0
 13 14  1  0
 14  9  1  0
M  END
>  <inchikey>  (70) 
QLOQFBVXSCYUGU-UHFFFAOYSA-N

>  <energy_score>  (70) 
-50.433226

>  <subsites>  (70) 
1 - Active Site

>  <alias>  (70) 
C8160-P180

>  <tags>  (70) 
openbind_a71ev2a_c1_scaffolds,BulkDock Fragalysis export,openbind_a71ev2a_c1_knitwork_impure,fragmenstein_placed

>  <distance_score>  (70) 
0.85495

>  <placement_batch>  (70) 
openbind_a71ev2a_c1_knitwork_impure

>  <name>  (70) 
C8160-P180

>  <ref_mols>  (70) 
A3417a,A0719a

>  <smiles>  (70) 
CC(C)CNS(=O)(=O)N1CCCCC1

>  <HIPPO Compound ID>  (70) 
3425

>  <HIPPO Pose ID>  (70) 
347020

>  <ref_pdb>  (70) 
A3706b

$$$$
C8178-P180
     RDKit          3D

 21 21  0  0  0  0  0  0  0  0999 V2000
    9.8335    9.4165   23.1957 C   0  0  0  0  0  0  0  0  0  0  0  0
   10.1167    9.4831   24.6719 C   0  0  0  0  0  0  0  0  0  0  0  0
   10.2339   10.8434   25.0727 O   0  0  0  0  0  0  0  0  0  0  0  0
    9.0623   11.5222   25.0791 C   0  0  0  0  0  0  0  0  0  0  0  0
    8.0889   11.2171   25.6132 O   0  0  0  0  0  0  0  0  0  0  0  0
    9.3730   12.7156   24.2319 N   0  0  0  0  0  0  0  0  0  0  0  0
    8.5653   13.8924   23.9113 C   0  0  0  0  0  0  0  0  0  0  0  0
    9.5604   14.4775   22.9734 N   0  0  0  0  0  0  0  0  0  0  0  0
   10.7531   15.0748   23.5694 C   0  0  0  0  0  0  0  0  0  0  0  0
   11.8826   14.9061   22.5716 C   0  0  0  0  0  0  0  0  0  0  0  0
   11.5471   15.6500   21.2975 C   0  0  0  0  0  0  0  0  0  0  0  0
   10.1967   15.2289   20.7358 C   0  0  0  0  0  0  0  0  0  0  0  0
    9.0952   15.2145   21.8009 C   0  0  0  0  0  0  0  0  0  0  0  0
    7.1918   13.5060   23.3072 C   0  0  0  0  0  0  0  0  0  0  0  0
    6.3823   12.8956   24.1912 F   0  0  0  0  0  0  0  0  0  0  0  0
    6.5226   14.5550   22.7876 F   0  0  0  0  0  0  0  0  0  0  0  0
    7.3554   12.6458   22.2733 F   0  0  0  0  0  0  0  0  0  0  0  0
    8.1326   14.7399   25.1373 C   0  0  0  0  0  0  0  0  0  0  0  0
    7.4744   14.0393   26.0852 F   0  0  0  0  0  0  0  0  0  0  0  0
    9.2070   15.2870   25.7735 F   0  0  0  0  0  0  0  0  0  0  0  0
    7.3413   15.7719   24.7718 F   0  0  0  0  0  0  0  0  0  0  0  0
  1  2  1  0
  2  3  1  0
  3  4  1  0
  4  5  2  0
  4  6  1  0
  6  7  1  0
  7  8  1  0
  8  9  1  0
  9 10  1  0
 10 11  1  0
 11 12  1  0
 12 13  1  0
  7 14  1  0
 14 15  1  0
 14 16  1  0
 14 17  1  0
  7 18  1  0
 18 19  1  0
 18 20  1  0
 18 21  1  0
 13  8  1  0
M  END
>  <inchikey>  (71) 
OKPCGXCBARQEEC-UHFFFAOYSA-N

>  <energy_score>  (71) 
-35.413013

>  <subsites>  (71) 
1 - Active Site

>  <alias>  (71) 
C8178-P180

>  <tags>  (71) 
openbind_a71ev2a_c1_scaffolds,BulkDock Fragalysis export,openbind_a71ev2a_c1_knitwork_impure,fragmenstein_placed

>  <distance_score>  (71) 
0.920386

>  <placement_batch>  (71) 
openbind_a71ev2a_c1_knitwork_impure

>  <name>  (71) 
C8178-P180

>  <ref_mols>  (71) 
A3417a,A0719a

>  <smiles>  (71) 
CCOC(=O)NC(N1CCCCC1)(C(F)(F)F)C(F)(F)F

>  <HIPPO Compound ID>  (71) 
6688

>  <HIPPO Pose ID>  (71) 
347035

>  <ref_pdb>  (71) 
A3706b

$$$$
C901-P186
     RDKit          3D

 23 26  0  0  0  0  0  0  0  0999 V2000
   25.4763   16.1156   24.6842 O   0  0  0  0  0  0  0  0  0  0  0  0
   24.7373   17.0177   24.7767 C   0  0  0  0  0  0  0  0  0  0  0  0
   25.1030   18.4266   24.3290 C   0  0  0  0  0  0  0  0  0  0  0  0
   24.2385   18.9159   23.1667 C   0  0  0  0  0  0  0  0  0  0  0  0
   24.9318   20.0114   22.3960 C   0  0  0  0  0  0  0  0  0  0  0  0
   24.5651   21.3643   22.5626 C   0  0  0  0  0  0  0  0  0  0  0  0
   25.2251   22.3768   21.8569 C   0  0  0  0  0  0  0  0  0  0  0  0
   26.2410   22.0085   21.0012 C   0  0  0  0  0  0  0  0  0  0  0  0
   26.6057   20.6950   20.8376 C   0  0  0  0  0  0  0  0  0  0  0  0
   25.9734   19.6774   21.5157 C   0  0  0  0  0  0  0  0  0  0  0  0
   27.6280   20.5431   19.9570 O   0  0  0  0  0  0  0  0  0  0  0  0
   27.8347   21.9060   19.5455 C   0  0  0  0  0  0  0  0  0  0  0  0
   26.9877   22.8515   20.2384 O   0  0  0  0  0  0  0  0  0  0  0  0
   23.3025   17.0866   25.3660 N   0  0  0  0  0  0  0  0  0  0  0  0
   22.4997   16.1057   25.8437 C   0  0  0  0  0  0  0  0  0  0  0  0
   22.7240   14.7159   25.8072 C   0  0  0  0  0  0  0  0  0  0  0  0
   21.6016   14.1632   26.3786 C   0  0  0  0  0  0  0  0  0  0  0  0
   20.8157   15.2185   26.7477 N   0  0  0  0  0  0  0  0  0  0  0  0
   19.4758   15.0915   27.3509 C   0  0  0  0  0  0  0  0  0  0  0  0
   19.3664   14.0024   28.4497 C   0  0  0  0  0  0  0  0  0  0  0  0
   18.4748   14.9906   29.2297 C   0  0  0  0  0  0  0  0  0  0  0  0
   19.2122   16.1210   28.4820 C   0  0  0  0  0  0  0  0  0  0  0  0
   21.3360   16.4129   26.4155 N   0  0  0  0  0  0  0  0  0  0  0  0
  1  2  2  0
  2  3  1  0
  3  4  1  0
  4  5  1  0
  5  6  2  0
  6  7  1  0
  7  8  2  0
  8  9  1  0
  9 10  2  0
  9 11  1  0
 11 12  1  0
 12 13  1  0
  2 14  1  0
 14 15  1  0
 15 16  1  0
 16 17  2  0
 17 18  1  0
 18 19  1  0
 19 20  1  0
 20 21  1  0
 21 22  1  0
 18 23  1  0
 10  5  1  0
 23 15  2  0
 13  8  1  0
 22 19  1  0
M  END
>  <inchikey>  (72) 
LGOSQMUDZURGMS-UHFFFAOYSA-N

>  <energy_score>  (72) 
-33.201765

>  <subsites>  (72) 
1 - Active Site,5 - A3181/A/202/1

>  <alias>  (72) 
C901-P186

>  <tags>  (72) 
openbind_a71ev2a_c1_scaffolds,BulkDock Fragalysis export,openbind_a71ev2a_c1_knitwork_impure,fragmenstein_placed

>  <distance_score>  (72) 
0.59967

>  <placement_batch>  (72) 
openbind_a71ev2a_c1_knitwork_impure

>  <name>  (72) 
C901-P186

>  <ref_mols>  (72) 
A0351b,A3483a

>  <smiles>  (72) 
O=C(CCc1ccc2c(c1)OCO2)Nc1ccn(C2CCC2)n1

>  <HIPPO Compound ID>  (72) 
4801

>  <HIPPO Pose ID>  (72) 
347823

>  <ref_pdb>  (72) 
A3706b

$$$$
C2414-P180
     RDKit          3D

 16 16  0  0  0  0  0  0  0  0999 V2000
    9.9477    9.2540   22.9848 C   0  0  0  0  0  0  0  0  0  0  0  0
    9.5291    9.6874   24.0164 C   0  0  0  0  0  0  0  0  0  0  0  0
    8.9582   10.2409   25.2280 C   0  0  0  0  0  0  0  0  0  0  0  0
    8.2422   11.5467   25.0033 C   0  0  0  0  0  0  0  0  0  0  0  0
    9.2000   12.5985   24.4810 C   0  0  0  0  0  0  0  0  0  0  0  0
   10.4190   12.4146   24.6029 O   0  0  0  0  0  0  0  0  0  0  0  0
    8.5575   13.9433   23.9322 C   0  0  1  0  0  0  0  0  0  0  0  0
    7.2699   13.6070   23.1543 C   0  0  0  0  0  0  0  0  0  0  0  0
    8.2242   14.8213   25.1799 C   0  0  0  0  0  0  0  0  0  0  0  0
    7.0552   15.7877   25.0306 C   0  0  0  0  0  0  0  0  0  0  0  0
    9.5544   14.5182   23.0143 N   0  0  0  0  0  0  0  0  0  0  0  0
   10.7817   15.0400   23.6077 C   0  0  0  0  0  0  0  0  0  0  0  0
   11.9137   14.8043   22.6265 C   0  0  0  0  0  0  0  0  0  0  0  0
   11.6429   15.5555   21.3388 C   0  0  0  0  0  0  0  0  0  0  0  0
   10.2742   15.2108   20.7722 C   0  0  0  0  0  0  0  0  0  0  0  0
    9.1660   15.2817   21.8286 C   0  0  0  0  0  0  0  0  0  0  0  0
  1  2  3  0
  2  3  1  0
  3  4  1  0
  4  5  1  0
  5  6  2  0
  5  7  1  0
  7  8  1  6
  7  9  1  0
  9 10  1  0
  7 11  1  0
 11 12  1  0
 12 13  1  0
 13 14  1  0
 14 15  1  0
 15 16  1  0
 16 11  1  0
M  END
>  <inchikey>  (73) 
ZQPQFOMHEKOXNL-UHFFFAOYSA-N

>  <energy_score>  (73) 
-27.839529

>  <subsites>  (73) 
1 - Active Site

>  <alias>  (73) 
C2414-P180

>  <tags>  (73) 
openbind_a71ev2a_c1_scaffolds,BulkDock Fragalysis export,openbind_a71ev2a_c1_knitwork_impure,fragmenstein_placed

>  <distance_score>  (73) 
0.957523

>  <placement_batch>  (73) 
openbind_a71ev2a_c1_knitwork_impure

>  <name>  (73) 
C2414-P180

>  <ref_mols>  (73) 
A1775a,A3417a

>  <smiles>  (73) 
C#CCCC(=O)[C@@](C)(CC)N1CCCCC1

>  <HIPPO Compound ID>  (73) 
12392

>  <HIPPO Pose ID>  (73) 
347864

>  <ref_pdb>  (73) 
A3706b

$$$$
C10375-P494
     RDKit          3D

 21 24  0  0  0  0  0  0  0  0999 V2000
   20.0318   -2.9264   27.5572 C   0  0  0  0  0  0  0  0  0  0  0  0
   21.2859   -2.3474   27.7661 C   0  0  0  0  0  0  0  0  0  0  0  0
   21.9426   -1.7035   26.7184 C   0  0  0  0  0  0  0  0  0  0  0  0
   23.1650   -1.0954   26.7806 O   0  0  0  0  0  0  0  0  0  0  0  0
   23.9181   -1.1900   27.9919 C   0  0  0  0  0  0  0  0  0  0  0  0
   25.3686   -0.8323   27.6691 C   0  0  0  0  0  0  0  0  0  0  0  0
   25.3842    0.6924   27.5871 C   0  0  0  0  0  0  0  0  0  0  0  0
   24.1915    1.1725   28.4118 C   0  0  0  0  0  0  0  0  0  0  0  0
   23.5319   -0.0852   28.9723 C   0  0  0  0  0  0  0  0  0  0  0  0
   21.3285   -1.6362   25.4629 C   0  0  0  0  0  0  0  0  0  0  0  0
   20.0673   -2.2065   25.2417 C   0  0  0  0  0  0  0  0  0  0  0  0
   19.4154   -2.1347   23.9196 C   0  0  0  0  0  0  0  0  0  0  0  0
   18.9197   -3.3215   23.2072 C   0  0  0  0  0  0  0  0  0  0  0  0
   18.2750   -3.2358   22.0269 C   0  0  0  0  0  0  0  0  0  0  0  0
   18.0613   -1.9615   21.4415 C   0  0  0  0  0  0  0  0  0  0  0  0
   17.4425   -1.5645   20.3502 N   0  0  0  0  0  0  0  0  0  0  0  0
   17.5371   -0.1919   20.2907 N   0  0  0  0  0  0  0  0  0  0  0  0
   18.2200    0.2111   21.3406 C   0  0  0  0  0  0  0  0  0  0  0  0
   18.5604   -0.8606   22.1166 N   0  0  0  0  0  0  0  0  0  0  0  0
   19.2245   -0.9306   23.3366 C   0  0  0  0  0  0  0  0  0  0  0  0
   19.4269   -2.8587   26.3020 C   0  0  0  0  0  0  0  0  0  0  0  0
  1  2  2  0
  2  3  1  0
  3  4  1  0
  4  5  1  0
  5  6  1  0
  6  7  1  0
  7  8  1  0
  8  9  1  0
  3 10  2  0
 10 11  1  0
 11 12  1  0
 12 13  1  0
 13 14  2  0
 14 15  1  0
 15 16  2  0
 16 17  1  0
 17 18  2  0
 18 19  1  0
 19 20  1  0
 11 21  2  0
 21  1  1  0
  9  5  1  0
 20 12  2  0
 19 15  1  0
M  END
>  <inchikey>  (74) 
YSYAKSZYKZXPDR-UHFFFAOYSA-N

>  <energy_score>  (74) 
-32.634615

>  <subsites>  (74) 
1 - Active Site,2 - A3977/A/202/1

>  <alias>  (74) 
C10375-P494

>  <tags>  (74) 
openbind_a71ev2a_c1_scaffolds,BulkDock Fragalysis export,openbind_a71ev2a_c1_knitwork_impure,fragmenstein_placed

>  <distance_score>  (74) 
0.200648

>  <placement_batch>  (74) 
openbind_a71ev2a_c1_knitwork_impure

>  <name>  (74) 
C10375-P494

>  <ref_mols>  (74) 
A1293a,A4874a

>  <smiles>  (74) 
c1cc(OC2CCCC2)cc(-c2ccc3nncn3c2)c1

>  <HIPPO Compound ID>  (74) 
18178

>  <HIPPO Pose ID>  (74) 
347923

>  <ref_pdb>  (74) 
A3706b

$$$$
C7518-P37
     RDKit          3D

 15 15  0  0  0  0  0  0  0  0999 V2000
   11.6757   14.3537   18.8928 C   0  0  0  0  0  0  0  0  0  0  0  0
   10.7255   14.8657   19.9544 C   0  0  0  0  0  0  0  0  0  0  0  0
    9.7755   15.9054   19.3381 C   0  0  0  0  0  0  0  0  0  0  0  0
   11.3637   15.4581   21.2147 C   0  0  0  0  0  0  0  0  0  0  0  0
   12.7808   15.1365   21.6627 C   0  0  0  0  0  0  0  0  0  0  0  0
   12.8024   14.5139   22.9405 O   0  0  0  0  0  0  0  0  0  0  0  0
   12.2967   13.1900   22.8588 C   0  0  0  0  0  0  0  0  0  0  0  0
   10.9973   13.1036   23.6425 C   0  0  0  0  0  0  0  0  0  0  0  0
   10.1391   11.9958   23.2077 N   0  0  0  0  0  0  0  0  0  0  0  0
    9.2717   11.5948   24.3089 C   0  0  1  0  0  0  0  0  0  0  0  0
    8.0945   12.5475   24.5167 C   0  0  0  0  0  0  0  0  0  0  0  0
    7.3093   12.1385   25.7573 C   0  0  0  0  0  0  0  0  0  0  0  0
    6.9594   10.6647   25.7645 C   0  0  0  0  0  0  0  0  0  0  0  0
    8.0312    9.7662   25.3805 N   0  0  0  0  0  0  0  0  0  0  0  0
    8.8165   10.1409   24.2143 C   0  0  0  0  0  0  0  0  0  0  0  0
  1  2  1  0
  2  3  1  0
  2  4  1  0
  4  5  1  0
  5  6  1  0
  6  7  1  0
  7  8  1  0
  8  9  1  0
 10  9  1  6
 10 11  1  0
 11 12  1  0
 12 13  1  0
 13 14  1  0
 14 15  1  0
 15 10  1  0
M  END
>  <inchikey>  (75) 
UICBVSXZBKLTCN-UHFFFAOYSA-N

>  <energy_score>  (75) 
-30.313824

>  <subsites>  (75) 
1 - Active Site

>  <alias>  (75) 
C7518-P37

>  <tags>  (75) 
openbind_a71ev2a_c1_scaffolds,BulkDock Fragalysis export,openbind_a71ev2a_c1_knitwork_impure,fragmenstein_placed

>  <distance_score>  (75) 
0.978637

>  <placement_batch>  (75) 
openbind_a71ev2a_c1_knitwork_impure

>  <name>  (75) 
C7518-P37

>  <ref_mols>  (75) 
A4456a,A4873a,A0310a,A3222a

>  <smiles>  (75) 
CC(C)CCOCCN[C@H]1CCCNC1

>  <HIPPO Compound ID>  (75) 
7467

>  <HIPPO Pose ID>  (75) 
348677

>  <ref_pdb>  (75) 
A3706b

$$$$
C18171-P252
     RDKit          3D

 15 15  0  0  0  0  0  0  0  0999 V2000
    9.9801   15.5182   23.8259 C   0  0  0  0  0  0  0  0  0  0  0  0
    8.9006   15.1690   22.7899 C   0  0  0  0  0  0  0  0  0  0  0  0
    7.6262   16.0263   22.9762 C   0  0  0  0  0  0  0  0  0  0  0  0
    8.5382   13.6771   22.9422 C   0  0  0  0  0  0  0  0  0  0  0  0
    7.9292   13.2326   24.2788 C   0  0  0  0  0  0  0  0  0  0  0  0
    7.3908   14.0056   25.0663 O   0  0  0  0  0  0  0  0  0  0  0  0
    7.9158   11.8021   24.5421 C   0  0  0  0  0  0  0  0  0  0  0  0
    8.7218   10.7644   24.0279 C   0  0  0  0  0  0  0  0  0  0  0  0
    8.3319    9.5620   24.4525 N   0  0  0  0  0  0  0  0  0  0  0  0
    7.2948    9.8249   25.2551 N   0  0  0  0  0  0  0  0  0  0  0  0
    7.0287   11.1510   25.3754 C   0  0  0  0  0  0  0  0  0  0  0  0
    9.4094   15.4628   21.3438 C   0  0  0  0  0  0  0  0  0  0  0  0
   10.7869   14.9487   20.9609 C   0  0  0  0  0  0  0  0  0  0  0  0
   11.0078   15.2399   19.6561 F   0  0  0  0  0  0  0  0  0  0  0  0
   11.7435   15.5884   21.6765 F   0  0  0  0  0  0  0  0  0  0  0  0
  1  2  1  0
  2  3  1  0
  2  4  1  0
  4  5  1  0
  5  6  2  0
  5  7  1  0
  7  8  1  0
  8  9  2  0
  9 10  1  0
 10 11  1  0
  2 12  1  0
 12 13  1  0
 13 14  1  0
 13 15  1  0
 11  7  2  0
M  END
>  <inchikey>  (76) 
OHSAREOUZZCQAJ-UHFFFAOYSA-N

>  <energy_score>  (76) 
-24.202973

>  <subsites>  (76) 
1 - Active Site

>  <alias>  (76) 
C18171-P252

>  <tags>  (76) 
openbind_a71ev2a_c1_scaffolds,BulkDock Fragalysis export,openbind_a71ev2a_c1_knitwork_impure,fragmenstein_placed

>  <distance_score>  (76) 
0.748996

>  <placement_batch>  (76) 
openbind_a71ev2a_c1_knitwork_impure

>  <name>  (76) 
C18171-P252

>  <ref_mols>  (76) 
A0556a,A3975a

>  <smiles>  (76) 
CC(C)(CC(=O)c1cn[nH]c1)CC(F)F

>  <HIPPO Compound ID>  (76) 
15058

>  <HIPPO Pose ID>  (76) 
349067

>  <ref_pdb>  (76) 
A3706b

$$$$
C18177-P252
     RDKit          3D

 11 11  0  0  0  0  0  0  0  0999 V2000
    9.8602   14.7254   23.0658 C   0  0  0  0  0  0  0  0  0  0  0  0
    8.4235   14.2392   23.0786 C   0  0  0  0  0  0  0  0  0  0  0  0
    8.0863   13.5208   24.3738 C   0  0  0  0  0  0  0  0  0  0  0  0
    7.7267   14.1131   25.4755 N   0  0  0  0  0  0  0  0  0  0  0  0
    7.7092   15.5079   25.3255 O   0  0  0  0  0  0  0  0  0  0  0  0
    7.2939   16.0922   26.5529 C   0  0  0  0  0  0  0  0  0  0  0  0
    8.1653   12.0709   24.4342 C   0  0  0  0  0  0  0  0  0  0  0  0
    7.3824   11.1832   25.2061 C   0  0  0  0  0  0  0  0  0  0  0  0
    7.7050    9.9010   25.0147 N   0  0  0  0  0  0  0  0  0  0  0  0
    8.7201    9.9595   24.1333 N   0  0  0  0  0  0  0  0  0  0  0  0
    9.0234   11.2361   23.7470 C   0  0  0  0  0  0  0  0  0  0  0  0
  1  2  1  0
  2  3  1  0
  3  4  2  3
  4  5  1  0
  5  6  1  0
  3  7  1  0
  7  8  1  0
  8  9  2  0
  9 10  1  0
 10 11  1  0
 11  7  2  0
M  END
>  <inchikey>  (77) 
NBQUOSUMIDGENX-UHFFFAOYSA-N

>  <energy_score>  (77) 
-22.470595

>  <subsites>  (77) 
1 - Active Site

>  <alias>  (77) 
C18177-P252

>  <tags>  (77) 
openbind_a71ev2a_c1_scaffolds,BulkDock Fragalysis export,openbind_a71ev2a_c1_knitwork_impure,fragmenstein_placed

>  <distance_score>  (77) 
0.788584

>  <placement_batch>  (77) 
openbind_a71ev2a_c1_knitwork_impure

>  <name>  (77) 
C18177-P252

>  <ref_mols>  (77) 
A0556a,A3975a

>  <smiles>  (77) 
CCC(=NOC)c1cn[nH]c1

>  <HIPPO Compound ID>  (77) 
6003

>  <HIPPO Pose ID>  (77) 
349071

>  <ref_pdb>  (77) 
A3706b

$$$$
C2382-P373
     RDKit          3D

 15 15  0  0  0  0  0  0  0  0999 V2000
    7.1661    9.9031   25.6831 C   0  0  0  0  0  0  0  0  0  0  0  0
    8.2975   10.7393   25.1139 C   0  0  0  0  0  0  0  0  0  0  0  0
    9.0545   10.0071   24.0018 C   0  0  0  0  0  0  0  0  0  0  0  0
    7.8016   12.1124   24.6889 C   0  0  0  0  0  0  0  0  0  0  0  0
    8.9356   13.0927   24.4509 C   0  0  0  0  0  0  0  0  0  0  0  0
   10.0421   12.8473   24.9487 O   0  0  0  0  0  0  0  0  0  0  0  0
    8.6051   14.4259   23.6765 C   0  0  0  0  0  0  0  0  0  0  0  0
    7.3015   14.2703   22.8629 C   0  0  0  0  0  0  0  0  0  0  0  0
    8.3482   15.5120   24.7416 C   0  0  0  0  0  0  0  0  0  0  0  0
    9.7615   14.7191   22.7839 N   0  0  0  0  0  0  0  0  0  0  0  0
   10.9339   15.2685   23.4855 C   0  0  0  0  0  0  0  0  0  0  0  0
   12.1564   15.1547   22.5906 C   0  0  0  0  0  0  0  0  0  0  0  0
   11.9682   15.9762   21.3281 C   0  0  0  0  0  0  0  0  0  0  0  0
   10.6857   15.5616   20.6275 C   0  0  0  0  0  0  0  0  0  0  0  0
    9.4876   15.5318   21.5828 C   0  0  0  0  0  0  0  0  0  0  0  0
  1  2  1  0
  2  3  1  0
  2  4  1  0
  4  5  1  0
  5  6  2  0
  5  7  1  0
  7  8  1  0
  7  9  1  0
  7 10  1  0
 10 11  1  0
 11 12  1  0
 12 13  1  0
 13 14  1  0
 14 15  1  0
 15 10  1  0
M  END
>  <inchikey>  (78) 
TVRSJPQUTNYHJL-UHFFFAOYSA-N

>  <energy_score>  (78) 
-39.351634

>  <subsites>  (78) 
1 - Active Site

>  <alias>  (78) 
C2382-P373

>  <tags>  (78) 
openbind_a71ev2a_c1_scaffolds,BulkDock Fragalysis export,openbind_a71ev2a_c1_knitwork_impure,fragmenstein_placed

>  <distance_score>  (78) 
0.921795

>  <placement_batch>  (78) 
openbind_a71ev2a_c1_knitwork_impure

>  <name>  (78) 
C2382-P373

>  <ref_mols>  (78) 
A1779a,A4461a

>  <smiles>  (78) 
CC(C)CC(=O)C(C)(C)N1CCCCC1

>  <HIPPO Compound ID>  (78) 
12390

>  <HIPPO Pose ID>  (78) 
349112

>  <ref_pdb>  (78) 
A3706b

$$$$
C542-P445
     RDKit          3D

 19 22  0  0  0  0  0  0  0  0999 V2000
   27.2151   20.0846   21.7364 C   0  0  0  0  0  0  0  0  0  0  0  0
   28.3203   20.4401   20.9696 C   0  0  0  0  0  0  0  0  0  0  0  0
   28.1685   21.1937   19.8006 C   0  0  0  0  0  0  0  0  0  0  0  0
   26.8725   21.5800   19.4193 C   0  0  0  0  0  0  0  0  0  0  0  0
   26.3617   22.4927   18.0581 S   0  0  0  0  0  0  0  0  0  0  0  0
   24.7131   22.3983   18.5803 C   0  0  0  0  0  0  0  0  0  0  0  0
   23.6813   23.0663   17.9713 N   0  0  0  0  0  0  0  0  0  0  0  0
   23.7059   23.2986   16.5194 C   0  0  0  0  0  0  0  0  0  0  0  0
   22.6314   24.3346   16.1057 C   0  0  0  0  0  0  0  0  0  0  0  0
   21.2622   23.9862   16.5807 N   0  0  0  0  0  0  0  0  0  0  0  0
   20.3393   25.0830   16.2376 C   0  0  0  0  0  0  0  0  0  0  0  0
   20.0468   25.0873   14.7130 C   0  0  0  0  0  0  0  0  0  0  0  0
   18.5657   25.3169   15.0809 C   0  0  0  0  0  0  0  0  0  0  0  0
   18.8721   24.6064   16.4160 C   0  0  0  0  0  0  0  0  0  0  0  0
   21.3277   23.8522   18.0565 C   0  0  0  0  0  0  0  0  0  0  0  0
   22.3407   22.7796   18.5029 C   0  0  0  0  0  0  0  0  0  0  0  0
   24.5455   21.6943   19.6817 N   0  0  0  0  0  0  0  0  0  0  0  0
   25.7534   21.2351   20.1715 C   0  0  0  0  0  0  0  0  0  0  0  0
   25.9300   20.4766   21.3477 C   0  0  0  0  0  0  0  0  0  0  0  0
  1  2  2  0
  2  3  1  0
  3  4  2  0
  4  5  1  0
  5  6  1  0
  6  7  1  0
  7  8  1  0
  8  9  1  0
  9 10  1  0
 10 11  1  0
 11 12  1  0
 12 13  1  0
 13 14  1  0
 10 15  1  0
 15 16  1  0
  6 17  2  0
 17 18  1  0
 18 19  2  0
 19  1  1  0
 18  4  1  0
 16  7  1  0
 14 11  1  0
M  END
>  <inchikey>  (79) 
MZDOVACAPIIERT-UHFFFAOYSA-N

>  <energy_score>  (79) 
-66.598653

>  <subsites>  (79) 
1 - Active Site,5 - A3181/A/202/1

>  <alias>  (79) 
C542-P445

>  <tags>  (79) 
openbind_a71ev2a_c1_scaffolds,BulkDock Fragalysis export,openbind_a71ev2a_c1_knitwork_impure,fragmenstein_placed

>  <distance_score>  (79) 
0.595714

>  <placement_batch>  (79) 
openbind_a71ev2a_c1_knitwork_impure

>  <name>  (79) 
C542-P445

>  <ref_mols>  (79) 
A0514b,A4715a

>  <smiles>  (79) 
c1ccc2sc(N3CCN(C4CCC4)CC3)nc2c1

>  <HIPPO Compound ID>  (79) 
2421

>  <HIPPO Pose ID>  (79) 
350128

>  <ref_pdb>  (79) 
A3706b

$$$$
C14594-P615
     RDKit          3D

 23 24  0  0  0  0  0  0  0  0999 V2000
    6.9242   -9.1329   11.2690 C   0  0  0  0  0  0  0  0  0  0  0  0
    7.9982   -8.3501   10.5067 C   0  0  0  0  0  0  0  0  0  0  0  0
    8.2986   -9.0778    9.1859 C   0  0  0  0  0  0  0  0  0  0  0  0
    8.9702   -8.1726    8.2998 O   0  0  0  0  0  0  0  0  0  0  0  0
    7.4995   -6.9405   10.1523 C   0  0  0  0  0  0  0  0  0  0  0  0
    6.6484   -6.9572    9.0140 O   0  0  0  0  0  0  0  0  0  0  0  0
    9.1712   -8.1907   11.3692 N   0  0  0  0  0  0  0  0  0  0  0  0
   10.4168   -9.0979   11.5488 C   0  0  0  0  0  0  0  0  0  0  0  0
   10.7243  -10.0453   10.9940 O   0  0  0  0  0  0  0  0  0  0  0  0
   11.1381   -8.3216   12.6908 N   0  0  0  0  0  0  0  0  0  0  0  0
   12.3840   -8.5257   13.2688 C   0  0  0  0  0  0  0  0  0  0  0  0
   13.2367   -9.5271   12.8357 C   0  0  0  0  0  0  0  0  0  0  0  0
   14.4079   -9.7113   13.5470 C   0  0  0  0  0  0  0  0  0  0  0  0
   14.7583   -8.9977   14.6426 N   0  0  0  0  0  0  0  0  0  0  0  0
   13.9316   -8.0061   15.0022 C   0  0  0  0  0  0  0  0  0  0  0  0
   14.1147   -7.3924   16.2294 O   0  0  0  0  0  0  0  0  0  0  0  0
   15.4679   -7.0292   16.5359 C   0  0  0  0  0  0  0  0  0  0  0  0
   16.2185   -8.0713   17.3534 C   0  0  0  0  0  0  0  0  0  0  0  0
   17.6209   -7.5671   17.6880 C   0  0  0  0  0  0  0  0  0  0  0  0
   17.5602   -6.3073   18.5362 C   0  0  0  0  0  0  0  0  0  0  0  0
   16.7379   -5.2203   17.8581 C   0  0  0  0  0  0  0  0  0  0  0  0
   15.3880   -5.7207   17.3412 C   0  0  0  0  0  0  0  0  0  0  0  0
   12.7449   -7.7316   14.3505 C   0  0  0  0  0  0  0  0  0  0  0  0
  1  2  1  0
  2  3  1  0
  3  4  1  0
  2  5  1  0
  5  6  1  0
  2  7  1  0
  7  8  1  0
  8  9  2  0
  8 10  1  0
 10 11  1  0
 11 12  2  0
 12 13  1  0
 13 14  2  0
 14 15  1  0
 15 16  1  0
 16 17  1  0
 17 18  1  0
 18 19  1  0
 19 20  1  0
 20 21  1  0
 21 22  1  0
 15 23  2  0
 23 11  1  0
 22 17  1  0
M  END
>  <inchikey>  (80) 
GKUFWTQUJZVHEF-UHFFFAOYSA-N

>  <energy_score>  (80) 
-22.693845

>  <subsites>  (80) 
1 - Active Site,2 - A3977/A/202/1

>  <alias>  (80) 
C14594-P615

>  <tags>  (80) 
openbind_a71ev2a_c1_scaffolds,BulkDock Fragalysis export,openbind_a71ev2a_c1_knitwork_impure,fragmenstein_placed

>  <distance_score>  (80) 
0.817277

>  <placement_batch>  (80) 
openbind_a71ev2a_c1_knitwork_impure

>  <name>  (80) 
C14594-P615

>  <ref_mols>  (80) 
A0395a,A5424a

>  <smiles>  (80) 
CC(CO)(CO)NC(=O)Nc1ccnc(OC2CCCCC2)c1

>  <HIPPO Compound ID>  (80) 
7492

>  <HIPPO Pose ID>  (80) 
350374

>  <ref_pdb>  (80) 
A3706b

$$$$
C8152-P146
     RDKit          3D

 14 14  0  0  0  0  0  0  0  0999 V2000
    9.6275    8.8631   23.5467 C   0  0  0  0  0  0  0  0  0  0  0  0
    9.5672   10.3623   23.3943 C   0  0  0  0  0  0  0  0  0  0  0  0
    8.2261   10.7812   23.6795 O   0  0  0  0  0  0  0  0  0  0  0  0
    7.9811   11.6884   24.6570 C   0  0  0  0  0  0  0  0  0  0  0  0
    7.0784   11.4834   25.4634 O   0  0  0  0  0  0  0  0  0  0  0  0
    8.8544   12.9538   24.6489 C   0  0  2  0  0  0  0  0  0  0  0  0
    8.2969   13.9642   25.5051 O   0  0  0  0  0  0  0  0  0  0  0  0
    9.0033   13.5288   23.2219 C   0  0  0  0  0  0  0  0  0  0  0  0
    9.3491   14.9604   23.2295 N   0  0  0  0  0  0  0  0  0  0  0  0
   10.6769   15.2597   23.7935 C   0  0  0  0  0  0  0  0  0  0  0  0
   11.8505   14.9310   22.8727 C   0  0  0  0  0  0  0  0  0  0  0  0
   11.6964   15.6176   21.5231 C   0  0  0  0  0  0  0  0  0  0  0  0
   10.3461   15.2711   20.9188 C   0  0  0  0  0  0  0  0  0  0  0  0
    9.2024   15.5587   21.8906 C   0  0  0  0  0  0  0  0  0  0  0  0
  1  2  1  0
  2  3  1  0
  3  4  1  0
  4  5  2  0
  4  6  1  0
  6  7  1  1
  6  8  1  0
  8  9  1  0
  9 10  1  0
 10 11  1  0
 11 12  1  0
 12 13  1  0
 13 14  1  0
 14  9  1  0
M  END
>  <inchikey>  (81) 
ASXOQFKVRDSSQV-UHFFFAOYSA-N

>  <energy_score>  (81) 
-16.467063

>  <subsites>  (81) 
1 - Active Site

>  <alias>  (81) 
C8152-P146

>  <tags>  (81) 
openbind_a71ev2a_c1_scaffolds,BulkDock Fragalysis export,openbind_a71ev2a_c1_knitwork_impure,fragmenstein_placed

>  <distance_score>  (81) 
0.788015

>  <placement_batch>  (81) 
openbind_a71ev2a_c1_knitwork_impure

>  <name>  (81) 
C8152-P146

>  <ref_mols>  (81) 
A3186a,A0719a

>  <smiles>  (81) 
CCOC(=O)[C@H](O)CN1CCCCC1

>  <HIPPO Compound ID>  (81) 
1335

>  <HIPPO Pose ID>  (81) 
350618

>  <ref_pdb>  (81) 
A3706b

$$$$
C8163-P146
     RDKit          3D

 15 15  0  0  0  0  0  0  0  0999 V2000
   11.2719   15.6983   20.2458 C   0  0  0  0  0  0  0  0  0  0  0  0
   11.5766   15.3425   21.3506 C   0  0  0  0  0  0  0  0  0  0  0  0
   11.8748   14.8182   22.6896 C   0  0  0  0  0  0  0  0  0  0  0  0
   10.7529   15.1190   23.6785 C   0  0  0  0  0  0  0  0  0  0  0  0
    9.4460   14.6939   23.1635 N   0  0  0  0  0  0  0  0  0  0  0  0
    8.8616   13.1665   23.4706 S   0  0  0  0  0  0  0  0  0  0  0  0
    7.8222   12.9346   22.4915 O   0  0  0  0  0  0  0  0  0  0  0  0
    9.9567   12.2468   23.6808 O   0  0  0  0  0  0  0  0  0  0  0  0
    8.0568   13.4331   25.0279 C   0  0  0  0  0  0  0  0  0  0  0  0
    6.9791   12.3920   25.3038 C   0  0  1  0  0  0  0  0  0  0  0  0
    7.5164   10.9601   25.2964 C   0  0  0  0  0  0  0  0  0  0  0  0
    6.3954   10.0050   25.6446 C   0  0  0  0  0  0  0  0  0  0  0  0
    5.6689   10.3720   26.9305 C   0  0  0  0  0  0  0  0  0  0  0  0
    5.2155   11.7592   26.9150 N   0  0  0  0  0  0  0  0  0  0  0  0
    6.2997   12.6979   26.6422 C   0  0  0  0  0  0  0  0  0  0  0  0
  1  2  3  0
  2  3  1  0
  3  4  1  0
  4  5  1  0
  5  6  1  0
  6  7  2  0
  6  8  2  0
  6  9  1  0
 10  9  1  1
 10 11  1  0
 11 12  1  0
 12 13  1  0
 13 14  1  0
 14 15  1  0
 15 10  1  0
M  END
>  <inchikey>  (82) 
SCEDCLAZUHAAQO-UHFFFAOYSA-N

>  <energy_score>  (82) 
-61.403546

>  <subsites>  (82) 
1 - Active Site

>  <alias>  (82) 
C8163-P146

>  <tags>  (82) 
openbind_a71ev2a_c1_scaffolds,BulkDock Fragalysis export,openbind_a71ev2a_c1_knitwork_impure,fragmenstein_placed

>  <distance_score>  (82) 
0.946113

>  <placement_batch>  (82) 
openbind_a71ev2a_c1_knitwork_impure

>  <name>  (82) 
C8163-P146

>  <ref_mols>  (82) 
A3186a,A0719a

>  <smiles>  (82) 
C#CCCNS(=O)(=O)C[C@H]1CCCNC1

>  <HIPPO Compound ID>  (82) 
4120

>  <HIPPO Pose ID>  (82) 
350628

>  <ref_pdb>  (82) 
A3706b

$$$$
C8176-P146
     RDKit          3D

 15 15  0  0  0  0  0  0  0  0999 V2000
    8.7991   14.7577   25.5373 C   0  0  0  0  0  0  0  0  0  0  0  0
    9.0507   13.5816   24.5819 C   0  0  2  0  0  0  0  0  0  0  0  0
   10.4632   13.3156   24.5834 O   0  0  0  0  0  0  0  0  0  0  0  0
    8.5767   13.9749   23.1605 C   0  0  0  0  0  0  0  0  0  0  0  0
    7.6313   13.4125   22.5952 O   0  0  0  0  0  0  0  0  0  0  0  0
    9.2897   15.1624   22.5423 C   0  0  0  0  0  0  0  0  0  0  0  0
   10.4394   15.4940   23.2047 F   0  0  0  0  0  0  0  0  0  0  0  0
    9.6322   14.9754   21.2466 F   0  0  0  0  0  0  0  0  0  0  0  0
    8.0130   16.6353   22.6684 Br  0  0  0  0  0  0  0  0  0  0  0  0
    8.3832   12.2888   25.1171 C   0  0  2  0  0  0  0  0  0  0  0  0
    8.4717   11.0932   24.1594 C   0  0  0  0  0  0  0  0  0  0  0  0
    7.8314    9.8565   24.7606 C   0  0  0  0  0  0  0  0  0  0  0  0
    6.4980   10.1427   25.4376 C   0  0  0  0  0  0  0  0  0  0  0  0
    6.5437   11.2569   26.3780 N   0  0  0  0  0  0  0  0  0  0  0  0
    6.9619   12.4714   25.6695 C   0  0  0  0  0  0  0  0  0  0  0  0
  2  1  1  1
  2  3  1  0
  2  4  1  0
  4  5  2  0
  4  6  1  0
  6  7  1  0
  6  8  1  0
  6  9  1  0
  2 10  1  0
 10 11  1  6
 11 12  1  0
 12 13  1  0
 13 14  1  0
 14 15  1  0
 15 10  1  0
M  END
>  <inchikey>  (83) 
TVAYLIZZNFTQFK-UHFFFAOYSA-N

>  <energy_score>  (83) 
-15.882331

>  <subsites>  (83) 
1 - Active Site

>  <alias>  (83) 
C8176-P146

>  <tags>  (83) 
openbind_a71ev2a_c1_scaffolds,BulkDock Fragalysis export,openbind_a71ev2a_c1_knitwork_impure,fragmenstein_placed

>  <distance_score>  (83) 
0.999847

>  <placement_batch>  (83) 
openbind_a71ev2a_c1_knitwork_impure

>  <name>  (83) 
C8176-P146

>  <ref_mols>  (83) 
A3186a,A0719a

>  <smiles>  (83) 
C[C@](O)(C(=O)C(F)(F)Br)[C@@H]1CCCNC1

>  <HIPPO Compound ID>  (83) 
733

>  <HIPPO Pose ID>  (83) 
350638

>  <ref_pdb>  (83) 
A3706b

$$$$
C13035-P2
     RDKit          3D

 18 19  0  0  0  0  0  0  0  0999 V2000
    3.1972   12.5277   30.2585 C   0  0  0  0  0  0  0  0  0  0  0  0
    3.2340   11.0305   29.9514 C   0  0  2  0  0  0  0  0  0  0  0  0
    3.8674   10.6557   28.6054 C   0  0  0  0  0  0  0  0  0  0  0  0
    5.0932   11.4330   28.1372 C   0  0  0  0  0  0  0  0  0  0  0  0
    5.4343   12.4483   28.6008 O   0  0  0  0  0  0  0  0  0  0  0  0
    5.6506   10.6442   26.9188 N   0  0  0  0  0  0  0  0  0  0  0  0
    6.6186   10.9724   26.0242 C   0  0  0  0  0  0  0  0  0  0  0  0
    7.2635   10.0628   25.1383 C   0  0  0  0  0  0  0  0  0  0  0  0
    8.1567   10.8467   24.4667 C   0  0  0  0  0  0  0  0  0  0  0  0
    7.9021   12.1121   24.8585 N   0  0  0  0  0  0  0  0  0  0  0  0
    7.0710   12.2251   25.8793 N   0  0  0  0  0  0  0  0  0  0  0  0
    8.7224   13.1275   24.2394 C   0  0  0  0  0  0  0  0  0  0  0  0
    9.8048   12.2690   23.5606 C   0  0  0  0  0  0  0  0  0  0  0  0
    9.2786   10.8013   23.5241 C   0  0  0  0  0  0  0  0  0  0  0  0
    1.8020   10.5063   29.9576 C   0  0  0  0  0  0  0  0  0  0  0  0
    1.2351   10.6371   31.1729 F   0  0  0  0  0  0  0  0  0  0  0  0
    1.7618    9.1975   29.6211 F   0  0  0  0  0  0  0  0  0  0  0  0
    1.0437   11.1704   29.0583 F   0  0  0  0  0  0  0  0  0  0  0  0
  2  1  1  6
  2  3  1  0
  3  4  1  0
  4  5  2  0
  4  6  1  0
  6  7  1  0
  7  8  1  0
  8  9  2  0
  9 10  1  0
 10 11  1  0
 10 12  1  0
 12 13  1  0
 13 14  1  0
  2 15  1  0
 15 16  1  0
 15 17  1  0
 15 18  1  0
 11  7  2  0
 14  9  1  0
M  END
>  <inchikey>  (84) 
MKTBAFXTCUWNBK-UHFFFAOYSA-N

>  <energy_score>  (84) 
-32.498086

>  <subsites>  (84) 
1 - Active Site

>  <alias>  (84) 
C13035-P2

>  <tags>  (84) 
openbind_a71ev2a_c1_scaffolds,BulkDock Fragalysis export,openbind_a71ev2a_c1_knitwork_impure,fragmenstein_placed

>  <distance_score>  (84) 
0.770837

>  <placement_batch>  (84) 
openbind_a71ev2a_c1_knitwork_impure

>  <name>  (84) 
C13035-P2

>  <ref_mols>  (84) 
A1445a,A4298a

>  <smiles>  (84) 
C[C@H](CC(=O)Nc1cc2n(n1)CCC2)C(F)(F)F

>  <HIPPO Compound ID>  (84) 
8861

>  <HIPPO Pose ID>  (84) 
350677

>  <ref_pdb>  (84) 
A3706b

$$$$
C25758-P122
     RDKit          3D

 13 13  0  0  0  0  0  0  0  0999 V2000
    9.6301    9.1532   23.6383 C   0  0  0  0  0  0  0  0  0  0  0  0
    9.7042   10.5442   24.1269 C   0  0  0  0  0  0  0  0  0  0  0  0
   11.0866   11.0871   24.0047 C   0  0  0  0  0  0  0  0  0  0  0  0
    8.5962   11.1142   24.6212 C   0  0  0  0  0  0  0  0  0  0  0  0
    8.3788   12.5556   24.7644 C   0  0  0  0  0  0  0  0  0  0  0  0
    7.8983   12.9919   25.8073 O   0  0  0  0  0  0  0  0  0  0  0  0
    8.5758   13.4100   23.5333 C   0  0  0  0  0  0  0  0  0  0  0  0
    9.7868   14.3504   23.6584 C   0  0  0  0  0  0  0  0  0  0  0  0
   10.9684   13.8036   23.0425 N   0  0  0  0  0  0  0  0  0  0  0  0
   12.1542   14.6480   23.1170 C   0  0  0  0  0  0  0  0  0  0  0  0
   12.2983   15.2038   21.7237 C   0  0  0  0  0  0  0  0  0  0  0  0
   11.9003   14.0284   20.8718 C   0  0  0  0  0  0  0  0  0  0  0  0
   10.7458   13.4638   21.6461 C   0  0  0  0  0  0  0  0  0  0  0  0
  1  2  1  0
  2  3  1  0
  2  4  2  3
  4  5  1  0
  5  6  2  0
  5  7  1  0
  7  8  1  0
  8  9  1  0
  9 10  1  0
 10 11  1  0
 11 12  1  0
 12 13  1  0
 13  9  1  0
M  END
>  <inchikey>  (85) 
XPVXHOUETPQGLE-UHFFFAOYSA-N

>  <energy_score>  (85) 
-13.181489

>  <subsites>  (85) 
1 - Active Site

>  <alias>  (85) 
C25758-P122

>  <tags>  (85) 
openbind_a71ev2a_c1_scaffolds,BulkDock Fragalysis export,openbind_a71ev2a_c1_knitwork_impure,fragmenstein_placed

>  <distance_score>  (85) 
0.915406

>  <placement_batch>  (85) 
openbind_a71ev2a_c1_knitwork_impure

>  <name>  (85) 
C25758-P122

>  <ref_mols>  (85) 
A1775a,A4421a

>  <smiles>  (85) 
CC(C)=CC(=O)CCN1CCCC1

>  <HIPPO Compound ID>  (85) 
20719

>  <HIPPO Pose ID>  (85) 
351045

>  <ref_pdb>  (85) 
A3706b

$$$$
C1780-P441
     RDKit          3D

 11 12  0  0  0  0  0  0  0  0999 V2000
    8.4362   10.5660   25.0769 C   0  0  0  0  0  0  0  0  0  0  0  0
    9.2015   11.0537   23.9875 C   0  0  0  0  0  0  0  0  0  0  0  0
    9.1347   12.4328   23.9328 C   0  0  0  0  0  0  0  0  0  0  0  0
    9.6580   13.3511   22.8704 C   0  0  2  0  0  0  0  0  0  0  0  0
   10.7366   14.3299   23.3416 C   0  0  0  0  0  0  0  0  0  0  0  0
   11.3138   15.1134   22.1561 C   0  0  0  0  0  0  0  0  0  0  0  0
   10.4080   15.0741   20.9293 C   0  0  0  0  0  0  0  0  0  0  0  0
    8.9386   15.1015   21.3166 C   0  0  0  0  0  0  0  0  0  0  0  0
    8.5287   14.0313   22.2268 N   0  0  0  0  0  0  0  0  0  0  0  0
    8.2037   12.9749   25.2642 S   0  0  0  0  0  0  0  0  0  0  0  0
    7.8363   11.4651   25.8503 N   0  0  0  0  0  0  0  0  0  0  0  0
  1  2  1  0
  2  3  2  0
  4  3  1  1
  4  5  1  0
  5  6  1  0
  6  7  1  0
  7  8  1  0
  8  9  1  0
  3 10  1  0
 10 11  1  0
 11  1  2  0
  9  4  1  0
M  END
>  <inchikey>  (86) 
OKTSLPRUODZUGE-UHFFFAOYSA-N

>  <energy_score>  (86) 
-30.156291

>  <subsites>  (86) 
1 - Active Site

>  <alias>  (86) 
C1780-P441

>  <tags>  (86) 
openbind_a71ev2a_c1_scaffolds,BulkDock Fragalysis export,openbind_a71ev2a_c1_knitwork_impure,fragmenstein_placed

>  <distance_score>  (86) 
0.968495

>  <placement_batch>  (86) 
openbind_a71ev2a_c1_knitwork_impure

>  <name>  (86) 
C1780-P441

>  <ref_mols>  (86) 
A4708a,A3564a

>  <smiles>  (86) 
c1cc([C@@H]2CCCCN2)sn1

>  <HIPPO Compound ID>  (86) 
92303

>  <HIPPO Pose ID>  (86) 
351335

>  <ref_pdb>  (86) 
A3706b

$$$$
C26247-P205
     RDKit          3D

 14 14  0  0  0  0  0  0  0  0999 V2000
   12.1634   15.3067   21.4044 C   0  0  0  0  0  0  0  0  0  0  0  0
   11.6717   15.3021   22.4978 C   0  0  0  0  0  0  0  0  0  0  0  0
   10.9849   15.3765   23.7885 C   0  0  0  0  0  0  0  0  0  0  0  0
    9.4782   15.0065   23.7025 C   0  0  0  0  0  0  0  0  0  0  0  0
    8.8933   15.3250   22.3076 C   0  0  0  0  0  0  0  0  0  0  0  0
    8.7320   15.8199   24.7871 C   0  0  0  0  0  0  0  0  0  0  0  0
    9.3197   13.5144   24.0959 C   0  0  0  0  0  0  0  0  0  0  0  0
   10.2046   12.8783   24.5267 O   0  0  0  0  0  0  0  0  0  0  0  0
    7.8100   13.1482   23.8984 N   0  0  0  0  0  0  0  0  0  0  0  0
    7.1131   12.0256   24.2598 N   0  0  0  0  0  0  0  0  0  0  0  0
    7.9267   10.8282   24.4561 C   0  0  0  0  0  0  0  0  0  0  0  0
    6.9754    9.9186   25.1994 C   0  0  0  0  0  0  0  0  0  0  0  0
    6.1518   10.8488   26.0683 C   0  0  0  0  0  0  0  0  0  0  0  0
    6.4219   12.2424   25.5355 C   0  0  0  0  0  0  0  0  0  0  0  0
  1  2  3  0
  2  3  1  0
  3  4  1  0
  4  5  1  0
  4  6  1  0
  4  7  1  0
  7  8  2  0
  7  9  1  0
  9 10  1  0
 10 11  1  0
 11 12  1  0
 12 13  1  0
 13 14  1  0
 14 10  1  0
M  END
>  <inchikey>  (87) 
NCEQHOKEWKRXIV-UHFFFAOYSA-N

>  <energy_score>  (87) 
-8.833016

>  <subsites>  (87) 
1 - Active Site

>  <alias>  (87) 
C26247-P205

>  <tags>  (87) 
openbind_a71ev2a_c1_scaffolds,BulkDock Fragalysis export,openbind_a71ev2a_c1_knitwork_impure,fragmenstein_placed

>  <distance_score>  (87) 
0.939548

>  <placement_batch>  (87) 
openbind_a71ev2a_c1_knitwork_impure

>  <name>  (87) 
C26247-P205

>  <ref_mols>  (87) 
A1445a,A3694a

>  <smiles>  (87) 
C#CCC(C)(C)C(=O)NN1CCCC1

>  <HIPPO Compound ID>  (87) 
2911

>  <HIPPO Pose ID>  (87) 
351473

>  <ref_pdb>  (87) 
A3706b

$$$$
C11212-P135
     RDKit          3D

 15 15  0  0  0  0  0  0  0  0999 V2000
   10.7955   14.9899   22.8181 O   0  0  0  0  0  0  0  0  0  0  0  0
   11.2158   13.9670   22.2775 C   0  0  0  0  0  0  0  0  0  0  0  0
   11.0118   12.6248   22.9738 C   0  0  0  0  0  0  0  0  0  0  0  0
    9.6305   12.5755   23.6144 C   0  0  0  0  0  0  0  0  0  0  0  0
    9.3567   11.3642   24.4922 C   0  0  0  0  0  0  0  0  0  0  0  0
    9.3219   10.0212   23.7945 C   0  0  0  0  0  0  0  0  0  0  0  0
   10.5615    9.5257   23.6141 F   0  0  0  0  0  0  0  0  0  0  0  0
    8.6498    9.1630   24.6017 F   0  0  0  0  0  0  0  0  0  0  0  0
   11.8831   13.9317   20.9185 C   0  0  0  0  0  0  0  0  0  0  0  0
   12.5559   15.1579   20.3652 C   0  0  0  0  0  0  0  0  0  0  0  0
   12.7535   15.2650   18.9832 C   0  0  0  0  0  0  0  0  0  0  0  0
   13.4204   16.3646   18.4530 C   0  0  0  0  0  0  0  0  0  0  0  0
   13.8818   17.3307   19.3278 C   0  0  0  0  0  0  0  0  0  0  0  0
   13.7224   17.2729   20.6646 N   0  0  0  0  0  0  0  0  0  0  0  0
   13.0685   16.1838   21.1453 C   0  0  0  0  0  0  0  0  0  0  0  0
  1  2  2  0
  2  3  1  0
  3  4  1  0
  4  5  1  0
  5  6  1  0
  6  7  1  0
  6  8  1  0
  2  9  1  0
  9 10  1  0
 10 11  2  0
 11 12  1  0
 12 13  2  0
 13 14  1  0
 14 15  2  0
 15 10  1  0
M  END
>  <inchikey>  (88) 
JXWMKEUIJSXMCW-UHFFFAOYSA-N

>  <energy_score>  (88) 
-10.916855

>  <subsites>  (88) 
1 - Active Site

>  <alias>  (88) 
C11212-P135

>  <tags>  (88) 
openbind_a71ev2a_c1_scaffolds,BulkDock Fragalysis export,openbind_a71ev2a_c1_knitwork_impure,fragmenstein_placed

>  <distance_score>  (88) 
0.843172

>  <placement_batch>  (88) 
openbind_a71ev2a_c1_knitwork_impure

>  <name>  (88) 
C11212-P135

>  <ref_mols>  (88) 
A4526a,A2629a

>  <smiles>  (88) 
O=C(CCCC(F)F)Cc1cccnc1

>  <HIPPO Compound ID>  (88) 
1786

>  <HIPPO Pose ID>  (88) 
351712

>  <ref_pdb>  (88) 
A3706b

$$$$
C20066-P550
     RDKit          3D

 16 16  0  0  0  0  0  0  0  0999 V2000
   11.8365   15.5670   21.8193 C   0  0  0  0  0  0  0  0  0  0  0  0
   11.8271   14.9907   23.1302 O   0  0  0  0  0  0  0  0  0  0  0  0
   10.7186   14.8838   23.9002 C   0  0  0  0  0  0  0  0  0  0  0  0
   10.8593   14.6141   25.0925 O   0  0  0  0  0  0  0  0  0  0  0  0
    9.3258   15.1604   23.2515 C   0  0  1  0  0  0  0  0  0  0  0  0
    9.1348   14.6114   21.9495 O   0  0  0  0  0  0  0  0  0  0  0  0
    8.0603   14.7621   24.1223 C   0  0  0  0  0  0  0  0  0  0  0  0
    6.8509   15.5462   23.5334 C   0  0  0  0  0  0  0  0  0  0  0  0
    8.1824   15.2225   25.5963 C   0  0  0  0  0  0  0  0  0  0  0  0
    7.7169   13.2344   23.9877 C   0  0  2  0  0  0  0  0  0  0  0  0
    6.4958   12.8215   24.8404 C   0  0  0  0  0  0  0  0  0  0  0  0
    6.6408   11.4781   25.5228 C   0  0  0  0  0  0  0  0  0  0  0  0
    7.3579   10.5240   24.7333 N   0  0  0  0  0  0  0  0  0  0  0  0
    8.5123   10.8479   24.0792 C   0  0  0  0  0  0  0  0  0  0  0  0
    9.1761    9.9941   23.5073 O   0  0  0  0  0  0  0  0  0  0  0  0
    8.9148   12.2995   24.1769 C   0  0  0  0  0  0  0  0  0  0  0  0
  1  2  1  0
  2  3  1  0
  3  4  2  0
  3  5  1  0
  5  6  1  6
  5  7  1  0
  7  8  1  0
  7  9  1  0
 10  7  1  1
 10 11  1  0
 11 12  1  0
 12 13  1  0
 13 14  1  0
 14 15  2  0
 14 16  1  0
 16 10  1  0
M  END
>  <inchikey>  (89) 
WBRPYRDSULUSNM-UHFFFAOYSA-N

>  <energy_score>  (89) 
-40.505238

>  <subsites>  (89) 
1 - Active Site

>  <alias>  (89) 
C20066-P550

>  <tags>  (89) 
openbind_a71ev2a_c1_scaffolds,BulkDock Fragalysis export,openbind_a71ev2a_c1_knitwork_impure,fragmenstein_placed

>  <distance_score>  (89) 
0.800094

>  <placement_batch>  (89) 
openbind_a71ev2a_c1_knitwork_impure

>  <name>  (89) 
C20066-P550

>  <ref_mols>  (89) 
A0719a,A5036a

>  <smiles>  (89) 
COC(=O)[C@@H](O)C(C)(C)[C@@H]1CCNC(=O)C1

>  <HIPPO Compound ID>  (89) 
11116

>  <HIPPO Pose ID>  (89) 
352007

>  <ref_pdb>  (89) 
A3706b

$$$$
C20082-P550
     RDKit          3D

 15 15  0  0  0  0  0  0  0  0999 V2000
    9.4755   12.1305   23.2307 O   0  0  0  0  0  0  0  0  0  0  0  0
    8.4387   12.1209   23.8874 C   0  0  0  0  0  0  0  0  0  0  0  0
    7.8575   10.9197   24.1591 N   0  0  0  0  0  0  0  0  0  0  0  0
    6.9991   10.7169   25.2857 C   0  0  0  0  0  0  0  0  0  0  0  0
    6.1023   11.8890   25.6201 C   0  0  0  0  0  0  0  0  0  0  0  0
    6.8120   13.2203   25.5185 C   0  0  0  0  0  0  0  0  0  0  0  0
    7.6370   13.3735   24.2368 C   0  0  1  0  0  0  0  0  0  0  0  0
    8.4540   14.6672   24.3596 C   0  0  0  0  0  0  0  0  0  0  0  0
    9.5895   14.7618   23.4300 N   0  0  0  0  0  0  0  0  0  0  0  0
   11.0920   14.8834   24.1676 S   0  0  0  0  0  0  0  0  0  0  0  0
   11.2855   13.6959   24.9660 O   0  0  0  0  0  0  0  0  0  0  0  0
   11.1884   16.1696   24.8182 O   0  0  0  0  0  0  0  0  0  0  0  0
   12.2076   14.8544   22.8054 C   0  0  0  0  0  0  0  0  0  0  0  0
   11.8990   15.8621   21.7310 C   0  0  0  0  0  0  0  0  0  0  0  0
   10.7769   15.2138   20.5107 Cl  0  0  0  0  0  0  0  0  0  0  0  0
  1  2  2  0
  2  3  1  0
  3  4  1  0
  4  5  1  0
  5  6  1  0
  6  7  1  0
  7  8  1  1
  8  9  1  0
  9 10  1  0
 10 11  2  0
 10 12  2  0
 10 13  1  0
 13 14  1  0
 14 15  1  0
  7  2  1  0
M  END
>  <inchikey>  (90) 
NFLBITXMLRACJJ-UHFFFAOYSA-N

>  <energy_score>  (90) 
-36.519402

>  <subsites>  (90) 
1 - Active Site

>  <alias>  (90) 
C20082-P550

>  <tags>  (90) 
openbind_a71ev2a_c1_scaffolds,BulkDock Fragalysis export,openbind_a71ev2a_c1_knitwork_impure,fragmenstein_placed

>  <distance_score>  (90) 
0.937587

>  <placement_batch>  (90) 
openbind_a71ev2a_c1_knitwork_impure

>  <name>  (90) 
C20082-P550

>  <ref_mols>  (90) 
A0719a,A5036a

>  <smiles>  (90) 
O=C1NCCC[C@H]1CNS(=O)(=O)CCCl

>  <HIPPO Compound ID>  (90) 
8041

>  <HIPPO Pose ID>  (90) 
352023

>  <ref_pdb>  (90) 
A3706b

$$$$
C1791-P197
     RDKit          3D

 15 17  0  0  0  0  0  0  0  0999 V2000
    7.6151   10.4392   25.4110 C   0  0  0  0  0  0  0  0  0  0  0  0
    8.4496    9.8645   24.2500 C   0  0  0  0  0  0  0  0  0  0  0  0
    9.4924   10.7929   23.6139 C   0  0  0  0  0  0  0  0  0  0  0  0
    9.0767   12.1909   23.7600 C   0  0  0  0  0  0  0  0  0  0  0  0
    9.7386   13.2081   23.1611 O   0  0  0  0  0  0  0  0  0  0  0  0
    9.0538   14.3275   23.5641 C   0  0  0  0  0  0  0  0  0  0  0  0
    9.5933   15.6625   23.1562 C   0  0  0  0  0  0  0  0  0  0  0  0
   11.0566   15.8372   23.5803 C   0  0  0  0  0  0  0  0  0  0  0  0
   12.0394   15.1960   22.6048 C   0  0  0  0  0  0  0  0  0  0  0  0
   11.8118   15.6427   21.2396 N   0  0  0  0  0  0  0  0  0  0  0  0
   10.4627   15.3133   20.7865 C   0  0  0  0  0  0  0  0  0  0  0  0
    9.3962   15.9570   21.6673 C   0  0  0  0  0  0  0  0  0  0  0  0
    8.0223   14.0707   24.3507 N   0  0  0  0  0  0  0  0  0  0  0  0
    8.0630   12.7153   24.5065 C   0  0  0  0  0  0  0  0  0  0  0  0
    7.1713   11.9136   25.3542 C   0  0  0  0  0  0  0  0  0  0  0  0
  1  2  1  0
  2  3  1  0
  3  4  1  0
  4  5  1  0
  5  6  1  0
  6  7  1  0
  7  8  1  0
  8  9  1  0
  9 10  1  0
 10 11  1  0
 11 12  1  0
  6 13  2  0
 13 14  1  0
 14 15  1  0
 15  1  1  0
 14  4  2  0
 12  7  1  0
M  END
>  <inchikey>  (91) 
BCDQTWFBHRJQBJ-UHFFFAOYSA-N

>  <energy_score>  (91) 
-43.495663

>  <subsites>  (91) 
1 - Active Site

>  <alias>  (91) 
C1791-P197

>  <tags>  (91) 
openbind_a71ev2a_c1_scaffolds,BulkDock Fragalysis export,openbind_a71ev2a_c1_knitwork_impure,fragmenstein_placed

>  <distance_score>  (91) 
0.928008

>  <placement_batch>  (91) 
openbind_a71ev2a_c1_knitwork_impure

>  <name>  (91) 
C1791-P197

>  <ref_mols>  (91) 
A3623a,A3616b

>  <smiles>  (91) 
C1CCc2oc(C3CCNCC3)nc2C1

>  <HIPPO Compound ID>  (91) 
12499

>  <HIPPO Pose ID>  (91) 
352284

>  <ref_pdb>  (91) 
A3706b

$$$$
C1795-P197
     RDKit          3D

 15 17  0  0  0  0  0  0  0  0999 V2000
   11.7343   15.6580   21.0193 C   0  0  0  0  0  0  0  0  0  0  0  0
   12.0896   15.1462   22.4089 C   0  0  0  0  0  0  0  0  0  0  0  0
   11.1572   15.7251   23.4670 C   0  0  0  0  0  0  0  0  0  0  0  0
    9.7423   15.5203   23.1477 N   0  0  0  0  0  0  0  0  0  0  0  0
    9.2169   14.3174   23.5058 C   0  0  0  0  0  0  0  0  0  0  0  0
    9.7930   13.1519   23.3078 N   0  0  0  0  0  0  0  0  0  0  0  0
    9.0442   12.1332   23.8430 C   0  0  0  0  0  0  0  0  0  0  0  0
    7.9640   12.5501   24.5770 C   0  0  0  0  0  0  0  0  0  0  0  0
    7.7200   14.2211   24.3612 S   0  0  0  0  0  0  0  0  0  0  0  0
    7.0971   11.6946   25.4117 C   0  0  0  0  0  0  0  0  0  0  0  0
    7.5571   10.2325   25.4067 C   0  0  0  0  0  0  0  0  0  0  0  0
    8.4206    9.7343   24.2442 C   0  0  0  0  0  0  0  0  0  0  0  0
    9.4382   10.7153   23.6683 C   0  0  0  0  0  0  0  0  0  0  0  0
    9.3637   16.0166   21.8120 C   0  0  0  0  0  0  0  0  0  0  0  0
   10.2561   15.4257   20.7190 C   0  0  0  0  0  0  0  0  0  0  0  0
  1  2  1  0
  2  3  1  0
  3  4  1  0
  4  5  1  0
  5  6  2  0
  6  7  1  0
  7  8  2  0
  8  9  1  0
  8 10  1  0
 10 11  1  0
 11 12  1  0
 12 13  1  0
  4 14  1  0
 14 15  1  0
 15  1  1  0
  9  5  1  0
 13  7  1  0
M  END
>  <inchikey>  (92) 
SKSIURWSBHFBHM-UHFFFAOYSA-N

>  <energy_score>  (92) 
-61.186649

>  <subsites>  (92) 
1 - Active Site

>  <alias>  (92) 
C1795-P197

>  <tags>  (92) 
openbind_a71ev2a_c1_scaffolds,BulkDock Fragalysis export,openbind_a71ev2a_c1_knitwork_impure,fragmenstein_placed

>  <distance_score>  (92) 
0.97449

>  <placement_batch>  (92) 
openbind_a71ev2a_c1_knitwork_impure

>  <name>  (92) 
C1795-P197

>  <ref_mols>  (92) 
A3623a,A3616b

>  <smiles>  (92) 
C1CCN(c2nc3c(s2)CCCC3)CC1

>  <HIPPO Compound ID>  (92) 
8808

>  <HIPPO Pose ID>  (92) 
352285

>  <ref_pdb>  (92) 
A3706b

$$$$
C7479-P296
     RDKit          3D

 23 24  0  0  0  0  0  0  0  0999 V2000
    3.3866   12.2826   18.1972 C   0  0  0  0  0  0  0  0  0  0  0  0
    3.2221   12.6014   19.6829 C   0  0  0  0  0  0  0  0  0  0  0  0
    2.1444   11.7125   20.3026 C   0  0  0  0  0  0  0  0  0  0  0  0
    2.9108   14.0332   19.9060 C   0  0  0  0  0  0  0  0  0  0  0  0
    2.0405   14.6090   19.0249 O   0  0  0  0  0  0  0  0  0  0  0  0
    1.9603   15.8962   19.4295 C   0  0  0  0  0  0  0  0  0  0  0  0
    2.6752   16.1990   20.4921 N   0  0  0  0  0  0  0  0  0  0  0  0
    3.2689   14.9927   20.8370 C   0  0  0  0  0  0  0  0  0  0  0  0
    4.1379   14.8701   22.0482 C   0  0  0  0  0  0  0  0  0  0  0  0
    5.4135   15.4938   21.7367 N   0  0  0  0  0  0  0  0  0  0  0  0
    6.8085   14.7397   22.2320 S   0  0  0  0  0  0  0  0  0  0  0  0
    6.5777   13.3448   21.8740 O   0  0  0  0  0  0  0  0  0  0  0  0
    7.8087   15.4045   21.4220 O   0  0  0  0  0  0  0  0  0  0  0  0
    6.7169   15.0664   23.7295 N   0  0  0  0  0  0  0  0  0  0  0  0
    8.0642   14.9104   24.4494 S   0  0  2  0  0  0  0  0  0  0  0  0
    7.8268   15.5307   26.1005 C   0  0  0  0  0  0  0  0  0  0  0  0
    9.3005   15.5115   23.9961 O   0  0  0  0  0  0  0  0  0  0  0  0
    8.4342   13.1874   24.7766 C   0  0  0  0  0  0  0  0  0  0  0  0
    9.1555   12.5598   23.5946 C   0  0  0  0  0  0  0  0  0  0  0  0
    9.5316   11.1243   23.8496 C   0  0  0  0  0  0  0  0  0  0  0  0
    8.4913   10.2598   24.5266 C   0  0  0  0  0  0  0  0  0  0  0  0
    7.6329   10.9514   25.5708 C   0  0  0  0  0  0  0  0  0  0  0  0
    7.2160   12.3609   25.1784 C   0  0  0  0  0  0  0  0  0  0  0  0
  1  2  1  0
  2  3  1  0
  2  4  1  0
  4  5  1  0
  5  6  1  0
  6  7  2  0
  7  8  1  0
  8  9  1  0
  9 10  1  0
 10 11  1  0
 11 12  2  0
 11 13  2  0
 11 14  1  0
 14 15  2  0
 15 16  1  1
 15 17  2  0
 15 18  1  0
 18 19  1  0
 19 20  1  0
 20 21  1  0
 21 22  1  0
 22 23  1  0
  8  4  2  0
 23 18  1  0
M  END
>  <inchikey>  (93) 
MHHNFZZOJRSSDX-UHFFFAOYSA-N

>  <energy_score>  (93) 
-240.208354

>  <subsites>  (93) 
1 - Active Site

>  <alias>  (93) 
C7479-P296

>  <tags>  (93) 
openbind_a71ev2a_c1_scaffolds,BulkDock Fragalysis export,openbind_a71ev2a_c1_knitwork_impure,fragmenstein_placed

>  <distance_score>  (93) 
0.891588

>  <placement_batch>  (93) 
openbind_a71ev2a_c1_knitwork_impure

>  <name>  (93) 
C7479-P296

>  <ref_mols>  (93) 
A3623a,A4311a

>  <smiles>  (93) 
CC(C)c1ocnc1CNS(=O)(=O)N=[S@](C)(=O)C1CCCCC1

>  <HIPPO Compound ID>  (93) 
13230

>  <HIPPO Pose ID>  (93) 
352385

>  <ref_pdb>  (93) 
A3706b

$$$$
C6285-P557
     RDKit          3D

 12 13  0  0  0  0  0  0  0  0999 V2000
    9.3101   10.7696   23.5908 C   0  0  0  0  0  0  0  0  0  0  0  0
    8.4681   10.5887   24.6705 C   0  0  0  0  0  0  0  0  0  0  0  0
    7.9989   11.6029   25.4215 N   0  0  0  0  0  0  0  0  0  0  0  0
    8.3569   12.8556   25.0278 C   0  0  0  0  0  0  0  0  0  0  0  0
    9.1829   13.1641   23.9418 C   0  0  0  0  0  0  0  0  0  0  0  0
    9.4961   14.4882   23.6430 N   0  0  0  0  0  0  0  0  0  0  0  0
   10.7260   14.9716   24.3002 C   0  0  0  0  0  0  0  0  0  0  0  0
   11.9670   14.7774   23.4078 C   0  0  0  0  0  0  0  0  0  0  0  0
   11.8375   15.4830   22.1299 N   0  0  0  0  0  0  0  0  0  0  0  0
   10.6558   14.9692   21.4158 C   0  0  0  0  0  0  0  0  0  0  0  0
    9.3466   14.9797   22.2457 C   0  0  0  0  0  0  0  0  0  0  0  0
    9.6729   12.0710   23.2372 C   0  0  0  0  0  0  0  0  0  0  0  0
  1  2  2  0
  2  3  1  0
  3  4  2  0
  4  5  1  0
  5  6  1  0
  6  7  1  0
  7  8  1  0
  8  9  1  0
  9 10  1  0
 10 11  1  0
  5 12  2  0
 12  1  1  0
 11  6  1  0
M  END
>  <inchikey>  (94) 
UGKZNMVPXYTRAP-UHFFFAOYSA-N

>  <energy_score>  (94) 
-19.88246

>  <subsites>  (94) 
1 - Active Site

>  <alias>  (94) 
C6285-P557

>  <tags>  (94) 
openbind_a71ev2a_c1_scaffolds,BulkDock Fragalysis export,openbind_a71ev2a_c1_knitwork_impure,fragmenstein_placed

>  <distance_score>  (94) 
0.881465

>  <placement_batch>  (94) 
openbind_a71ev2a_c1_knitwork_impure

>  <name>  (94) 
C6285-P557

>  <ref_mols>  (94) 
A5079a,A2629a

>  <smiles>  (94) 
c1cncc(N2CCNCC2)c1

>  <HIPPO Compound ID>  (94) 
14131

>  <HIPPO Pose ID>  (94) 
353372

>  <ref_pdb>  (94) 
A3706b

$$$$
C709-P557
     RDKit          3D

 12 13  0  0  0  0  0  0  0  0999 V2000
    9.3080   10.7704   23.5996 C   0  0  0  0  0  0  0  0  0  0  0  0
    8.4556   10.5734   24.6683 C   0  0  0  0  0  0  0  0  0  0  0  0
    7.9631   11.5781   25.4175 N   0  0  0  0  0  0  0  0  0  0  0  0
    8.3092   12.8370   25.0352 C   0  0  0  0  0  0  0  0  0  0  0  0
    9.1468   13.1604   23.9630 C   0  0  0  0  0  0  0  0  0  0  0  0
    9.4516   14.4859   23.6735 N   0  0  0  0  0  0  0  0  0  0  0  0
   10.6931   14.9868   24.2839 C   0  0  0  0  0  0  0  0  0  0  0  0
   11.9254   14.7638   23.4088 C   0  0  0  0  0  0  0  0  0  0  0  0
   11.7998   15.6796   21.8491 S   0  0  0  0  0  0  0  0  0  0  0  0
   10.2209   14.9742   21.2881 C   0  0  0  0  0  0  0  0  0  0  0  0
    9.1094   15.0404   22.3422 C   0  0  0  0  0  0  0  0  0  0  0  0
    9.6596   12.0778   23.2577 C   0  0  0  0  0  0  0  0  0  0  0  0
  1  2  2  0
  2  3  1  0
  3  4  2  0
  4  5  1  0
  5  6  1  0
  6  7  1  0
  7  8  1  0
  8  9  1  0
  9 10  1  0
 10 11  1  0
  5 12  2  0
 12  1  1  0
 11  6  1  0
M  END
>  <inchikey>  (95) 
OCOAFNKPMGWDGK-UHFFFAOYSA-N

>  <energy_score>  (95) 
-13.512434

>  <subsites>  (95) 
1 - Active Site

>  <alias>  (95) 
C709-P557

>  <tags>  (95) 
openbind_a71ev2a_c1_scaffolds,BulkDock Fragalysis export,openbind_a71ev2a_c1_knitwork_impure,fragmenstein_placed

>  <distance_score>  (95) 
0.967459

>  <placement_batch>  (95) 
openbind_a71ev2a_c1_knitwork_impure

>  <name>  (95) 
C709-P557

>  <ref_mols>  (95) 
A5079a,A2629a

>  <smiles>  (95) 
c1cncc(N2CCSCC2)c1

>  <HIPPO Compound ID>  (95) 
137590

>  <HIPPO Pose ID>  (95) 
353377

>  <ref_pdb>  (95) 
A3706b

$$$$
C90474-P543
     RDKit          3D

 10 10  0  0  0  0  0  0  0  0999 V2000
    8.7962   11.3324   23.6355 C   0  0  0  0  0  0  0  0  0  0  0  0
    8.3867   12.2839   24.7354 C   0  0  0  0  0  0  0  0  0  0  0  0
    6.8930   12.3126   25.0035 C   0  0  0  0  0  0  0  0  0  0  0  0
    8.9455   11.7668   25.8559 F   0  0  0  0  0  0  0  0  0  0  0  0
    8.9018   13.7221   24.4888 C   0  0  0  0  0  0  0  0  0  0  0  0
   10.2676   13.7297   23.9310 N   0  0  0  0  0  0  0  0  0  0  0  0
   10.4463   14.8930   23.0979 N   0  0  0  0  0  0  0  0  0  0  0  0
    9.8973   14.6560   21.7215 C   0  0  0  0  0  0  0  0  0  0  0  0
   11.2607   14.0964   21.3077 C   0  0  0  0  0  0  0  0  0  0  0  0
   11.8037   14.8918   22.4828 C   0  0  0  0  0  0  0  0  0  0  0  0
  1  2  1  0
  2  3  1  0
  2  4  1  0
  2  5  1  0
  5  6  1  0
  6  7  1  0
  7  8  1  0
  8  9  1  0
  9 10  1  0
 10  7  1  0
M  END
>  <inchikey>  (96) 
NALJDFTWWSKAFR-UHFFFAOYSA-N

>  <energy_score>  (96) 
-20.309401

>  <subsites>  (96) 
1 - Active Site

>  <alias>  (96) 
C90474-P543

>  <tags>  (96) 
openbind_a71ev2a_c1_scaffolds,BulkDock Fragalysis export,openbind_a71ev2a_c1_knitwork_impure,fragmenstein_placed

>  <distance_score>  (96) 
0.905839

>  <placement_batch>  (96) 
openbind_a71ev2a_c1_knitwork_impure

>  <name>  (96) 
C90474-P543

>  <ref_mols>  (96) 
A1445a,A4994a

>  <smiles>  (96) 
CC(C)(F)CNN1CCC1

>  <HIPPO Compound ID>  (96) 
717

>  <HIPPO Pose ID>  (96) 
354267

>  <ref_pdb>  (96) 
A4526a

$$$$
C4728-P344
     RDKit          3D

  9  9  0  0  0  0  0  0  0  0999 V2000
   10.8810   15.8779   21.0872 O   0  0  0  0  0  0  0  0  0  0  0  0
   11.8089   15.5152   21.8033 C   0  0  0  0  0  0  0  0  0  0  0  0
   11.6390   14.7078   23.0680 C   0  0  0  0  0  0  0  0  0  0  0  0
   10.1899   14.7250   23.5686 C   0  0  0  0  0  0  0  0  0  0  0  0
    9.9025   13.6451   24.5344 N   0  0  0  0  0  0  0  0  0  0  0  0
    8.5559   13.7931   25.1355 C   0  0  0  0  0  0  0  0  0  0  0  0
    8.0319   12.4002   25.2466 C   0  0  0  0  0  0  0  0  0  0  0  0
    8.7941   11.5637   24.5394 C   0  0  0  0  0  0  0  0  0  0  0  0
    9.8918   12.3174   23.8734 C   0  0  0  0  0  0  0  0  0  0  0  0
  1  2  2  0
  2  3  1  0
  3  4  1  0
  4  5  1  0
  5  6  1  0
  6  7  1  0
  7  8  2  0
  8  9  1  0
  9  5  1  0
M  END
>  <inchikey>  (97) 
KPRRPMPYWRBBFE-UHFFFAOYSA-N

>  <energy_score>  (97) 
-31.453841

>  <subsites>  (97) 
1 - Active Site

>  <alias>  (97) 
C4728-P344

>  <tags>  (97) 
openbind_a71ev2a_c1_scaffolds,BulkDock Fragalysis export,openbind_a71ev2a_c1_knitwork_impure,fragmenstein_placed

>  <distance_score>  (97) 
0.896831

>  <placement_batch>  (97) 
openbind_a71ev2a_c1_knitwork_impure

>  <name>  (97) 
C4728-P344

>  <ref_mols>  (97) 
A4274b,A1779a

>  <smiles>  (97) 
O=CCCN1CC=CC1

>  <HIPPO Compound ID>  (97) 
2655

>  <HIPPO Pose ID>  (97) 
354497

>  <ref_pdb>  (97) 
A4526a

$$$$
C4745-P440
     RDKit          3D

 11 12  0  0  0  0  0  0  0  0999 V2000
   11.2862   14.8678   22.4009 C   0  0  0  0  0  0  0  0  0  0  0  0
   10.9101   14.0158   23.4123 C   0  0  0  0  0  0  0  0  0  0  0  0
    9.5591   13.6771   23.1322 C   0  0  0  0  0  0  0  0  0  0  0  0
    8.6392   12.6927   23.8116 C   0  0  2  0  0  0  0  0  0  0  0  0
    8.0636   13.2184   25.1438 C   0  0  0  0  0  0  0  0  0  0  0  0
    7.0144   12.3686   25.7569 N   0  0  0  0  0  0  0  0  0  0  0  0
    7.5120   11.0199   26.0578 C   0  0  0  0  0  0  0  0  0  0  0  0
    8.0410   10.2282   24.8620 C   0  0  0  0  0  0  0  0  0  0  0  0
    9.4485   11.0634   24.0779 S   0  0  0  0  0  0  0  0  0  0  0  0
    9.1066   14.3615   22.0688 N   0  0  0  0  0  0  0  0  0  0  0  0
   10.1943   14.9952   21.5941 N   0  0  0  0  0  0  0  0  0  0  0  0
  1  2  2  0
  2  3  1  0
  4  3  1  1
  4  5  1  0
  5  6  1  0
  6  7  1  0
  7  8  1  0
  8  9  1  0
  3 10  2  0
 10 11  1  0
 11  1  1  0
  9  4  1  0
M  END
>  <inchikey>  (98) 
NGTVSTSCMVXIID-UHFFFAOYSA-N

>  <energy_score>  (98) 
-27.676617

>  <subsites>  (98) 
1 - Active Site

>  <alias>  (98) 
C4745-P440

>  <tags>  (98) 
openbind_a71ev2a_c1_scaffolds,BulkDock Fragalysis export,openbind_a71ev2a_c1_knitwork_impure,fragmenstein_placed

>  <distance_score>  (98) 
0.866514

>  <placement_batch>  (98) 
openbind_a71ev2a_c1_knitwork_impure

>  <name>  (98) 
C4745-P440

>  <ref_mols>  (98) 
A2304a,A4707a

>  <smiles>  (98) 
c1cc([C@@H]2CNCCS2)n[nH]1

>  <HIPPO Compound ID>  (98) 
24158

>  <HIPPO Pose ID>  (98) 
355218

>  <ref_pdb>  (98) 
A4526a

$$$$
C82633-P168
     RDKit          3D

 13 13  0  0  0  0  0  0  0  0999 V2000
    7.4445   14.1545   26.2081 N   0  0  0  0  0  0  0  0  0  0  0  0
    7.1546   14.6482   25.1968 C   0  0  0  0  0  0  0  0  0  0  0  0
    6.7550   15.3714   23.9951 C   0  0  0  0  0  0  0  0  0  0  0  0
    7.6946   14.6696   22.6591 S   0  0  0  0  0  0  0  0  0  0  0  0
    9.0758   14.6001   23.0727 O   0  0  0  0  0  0  0  0  0  0  0  0
    7.0042   13.4986   22.1550 O   0  0  0  0  0  0  0  0  0  0  0  0
    7.5828   15.8323   21.4599 N   0  0  0  0  0  0  0  0  0  0  0  0
    8.7343   16.7474   21.2628 C   0  0  0  0  0  0  0  0  0  0  0  0
    9.8451   16.0876   20.5470 C   0  0  0  0  0  0  0  0  0  0  0  0
   10.9820   15.4430   20.9930 C   0  0  0  0  0  0  0  0  0  0  0  0
   11.8081   14.9324   20.0090 N   0  0  0  0  0  0  0  0  0  0  0  0
   11.2923   15.2142   18.8345 C   0  0  0  0  0  0  0  0  0  0  0  0
    9.8545   16.1308   18.8459 S   0  0  0  0  0  0  0  0  0  0  0  0
  1  2  3  0
  2  3  1  0
  3  4  1  0
  4  5  2  0
  4  6  2  0
  4  7  1  0
  7  8  1  0
  8  9  1  0
  9 10  2  0
 10 11  1  0
 11 12  2  0
 12 13  1  0
 13  9  1  0
M  END
>  <inchikey>  (99) 
FVYPBJNBOMUKIB-UHFFFAOYSA-N

>  <energy_score>  (99) 
-36.880742

>  <subsites>  (99) 
1 - Active Site

>  <alias>  (99) 
C82633-P168

>  <tags>  (99) 
openbind_a71ev2a_c1_scaffolds,BulkDock Fragalysis export,openbind_a71ev2a_c1_knitwork_impure,fragmenstein_placed

>  <distance_score>  (99) 
0.893031

>  <placement_batch>  (99) 
openbind_a71ev2a_c1_knitwork_impure

>  <name>  (99) 
C82633-P168

>  <ref_mols>  (99) 
A3306a,A0719a

>  <smiles>  (99) 
N#CCS(=O)(=O)NCc1cncs1

>  <HIPPO Compound ID>  (99) 
39011

>  <HIPPO Pose ID>  (99) 
355303

>  <ref_pdb>  (99) 
A0469a

$$$$
C7527-P453
     RDKit          3D

 15 15  0  0  0  0  0  0  0  0999 V2000
    6.4045   10.5541   26.0806 F   0  0  0  0  0  0  0  0  0  0  0  0
    7.3904   11.3272   25.5708 C   0  0  0  0  0  0  0  0  0  0  0  0
    7.8620   12.0876   26.5852 F   0  0  0  0  0  0  0  0  0  0  0  0
    6.8355   12.1686   24.6795 F   0  0  0  0  0  0  0  0  0  0  0  0
    8.5034   10.4531   24.9799 C   0  0  0  0  0  0  0  0  0  0  0  0
    9.5364   11.1211   24.2516 O   0  0  0  0  0  0  0  0  0  0  0  0
   10.2613   12.0698   25.0340 C   0  0  0  0  0  0  0  0  0  0  0  0
    9.7461   13.4924   24.8198 C   0  0  0  0  0  0  0  0  0  0  0  0
    9.9037   13.8198   23.4042 N   0  0  0  0  0  0  0  0  0  0  0  0
    9.8408   15.2506   23.2237 N   0  0  0  0  0  0  0  0  0  0  0  0
   11.1953   15.8108   23.4034 C   0  0  0  0  0  0  0  0  0  0  0  0
   12.2027   15.3578   22.3511 C   0  0  0  0  0  0  0  0  0  0  0  0
   11.7079   15.6895   20.9541 C   0  0  0  0  0  0  0  0  0  0  0  0
   10.2985   15.1618   20.7353 C   0  0  0  0  0  0  0  0  0  0  0  0
    9.3509   15.5770   21.8640 C   0  0  0  0  0  0  0  0  0  0  0  0
  1  2  1  0
  2  3  1  0
  2  4  1  0
  2  5  1  0
  5  6  1  0
  6  7  1  0
  7  8  1  0
  8  9  1  0
  9 10  1  0
 10 11  1  0
 11 12  1  0
 12 13  1  0
 13 14  1  0
 14 15  1  0
 15 10  1  0
M  END
>  <inchikey>  (100) 
LSUAPJGZXMGFQN-UHFFFAOYSA-N

>  <energy_score>  (100) 
-42.747717

>  <subsites>  (100) 
1 - Active Site

>  <alias>  (100) 
C7527-P453

>  <tags>  (100) 
openbind_a71ev2a_c1_scaffolds,BulkDock Fragalysis export,openbind_a71ev2a_c1_knitwork_impure,fragmenstein_placed

>  <distance_score>  (100) 
0.941521

>  <placement_batch>  (100) 
openbind_a71ev2a_c1_knitwork_impure

>  <name>  (100) 
C7527-P453

>  <ref_mols>  (100) 
A1445a,A4742b

>  <smiles>  (100) 
FC(F)(F)COCCNN1CCCCC1

>  <HIPPO Compound ID>  (100) 
5967

>  <HIPPO Pose ID>  (100) 
356033

>  <ref_pdb>  (100) 
A0469a

$$$$
C7529-P453
     RDKit          3D

 13 13  0  0  0  0  0  0  0  0999 V2000
   10.3738   12.9079   25.8385 O   0  0  0  0  0  0  0  0  0  0  0  0
    9.3974   12.9822   25.1869 C   0  0  0  0  0  0  0  0  0  0  0  0
    9.1593   13.6464   23.7767 N   0  0  0  0  0  0  0  0  0  0  0  0
   10.0493   14.2302   22.9030 N   0  0  0  0  0  0  0  0  0  0  0  0
   11.0717   15.0528   23.5545 C   0  0  0  0  0  0  0  0  0  0  0  0
   12.1613   15.3533   22.5362 C   0  0  0  0  0  0  0  0  0  0  0  0
   11.6085   16.0941   21.3313 C   0  0  0  0  0  0  0  0  0  0  0  0
   10.4266   15.3423   20.7345 C   0  0  0  0  0  0  0  0  0  0  0  0
    9.4007   14.9632   21.8036 C   0  0  0  0  0  0  0  0  0  0  0  0
    8.0660   12.3082   25.5510 C   0  0  0  0  0  0  0  0  0  0  0  0
    6.9951   12.9194   24.9726 F   0  0  0  0  0  0  0  0  0  0  0  0
    7.8020   12.2775   26.8785 F   0  0  0  0  0  0  0  0  0  0  0  0
    8.1946   10.6345   24.9712 Cl  0  0  0  0  0  0  0  0  0  0  0  0
  1  2  2  0
  2  3  1  0
  3  4  1  0
  4  5  1  0
  5  6  1  0
  6  7  1  0
  7  8  1  0
  8  9  1  0
  2 10  1  0
 10 11  1  0
 10 12  1  0
 10 13  1  0
  9  4  1  0
M  END
>  <inchikey>  (101) 
FUFCTZFRZVSXTB-UHFFFAOYSA-N

>  <energy_score>  (101) 
-5.9766

>  <subsites>  (101) 
1 - Active Site

>  <alias>  (101) 
C7529-P453

>  <tags>  (101) 
openbind_a71ev2a_c1_scaffolds,BulkDock Fragalysis export,openbind_a71ev2a_c1_knitwork_impure,fragmenstein_placed

>  <distance_score>  (101) 
0.824169

>  <placement_batch>  (101) 
openbind_a71ev2a_c1_knitwork_impure

>  <name>  (101) 
C7529-P453

>  <ref_mols>  (101) 
A1445a,A4742b

>  <smiles>  (101) 
O=C(NN1CCCCC1)C(F)(F)Cl

>  <HIPPO Compound ID>  (101) 
6187

>  <HIPPO Pose ID>  (101) 
356034

>  <ref_pdb>  (101) 
A0469a

$$$$
C5649-P481
     RDKit          3D

 19 21  0  0  0  0  0  0  0  0999 V2000
   21.8802   21.3125    2.1230 O   0  0  0  0  0  0  0  0  0  0  0  0
   21.3779   20.7243    3.0696 C   0  0  0  0  0  0  0  0  0  0  0  0
   20.6130   19.6053    2.9656 O   0  0  0  0  0  0  0  0  0  0  0  0
   20.4688   19.0973    1.6365 C   0  0  0  0  0  0  0  0  0  0  0  0
   19.8154   17.7451    1.7818 C   0  0  0  0  0  0  0  0  0  0  0  0
   18.4178   17.6455    1.8587 C   0  0  0  0  0  0  0  0  0  0  0  0
   17.7869   16.4197    2.1096 C   0  0  0  0  0  0  0  0  0  0  0  0
   18.5829   15.2794    2.2996 C   0  0  0  0  0  0  0  0  0  0  0  0
   18.3592   13.9216    2.6132 C   0  0  0  0  0  0  0  0  0  0  0  0
   19.4902   13.2182    2.7036 N   0  0  0  0  0  0  0  0  0  0  0  0
   20.4505   14.1404    2.4789 N   0  0  0  0  0  0  0  0  0  0  0  0
   19.9644   15.3929    2.2074 C   0  0  0  0  0  0  0  0  0  0  0  0
   20.6159   16.6015    1.9447 C   0  0  0  0  0  0  0  0  0  0  0  0
   21.4757   21.1430    4.5244 C   0  0  1  0  0  0  0  0  0  0  0  0
   22.0789   20.0026    5.3604 C   0  0  0  0  0  0  0  0  0  0  0  0
   22.5223   20.4390    6.7259 C   0  0  0  0  0  0  0  0  0  0  0  0
   22.6314   21.7257    7.0853 C   0  0  0  0  0  0  0  0  0  0  0  0
   22.3697   22.8656    6.1465 C   0  0  0  0  0  0  0  0  0  0  0  0
   22.2994   22.4266    4.6821 C   0  0  0  0  0  0  0  0  0  0  0  0
  1  2  2  0
  2  3  1  0
  3  4  1  0
  4  5  1  0
  5  6  2  0
  6  7  1  0
  7  8  2  0
  8  9  1  0
  9 10  2  0
 10 11  1  0
 11 12  1  0
 12 13  2  0
 14  2  1  6
 14 15  1  0
 15 16  1  0
 16 17  2  0
 17 18  1  0
 18 19  1  0
 13  5  1  0
 19 14  1  0
 12  8  1  0
M  END
>  <inchikey>  (102) 
MRPNTPLWNNFLQF-UHFFFAOYSA-N

>  <energy_score>  (102) 
-41.865667

>  <subsites>  (102) 
6 - A0486/A/147/1,1 - Active Site

>  <alias>  (102) 
C5649-P481

>  <tags>  (102) 
openbind_a71ev2a_c1_scaffolds,BulkDock Fragalysis export,openbind_a71ev2a_c1_knitwork_impure,fragmenstein_placed

>  <distance_score>  (102) 
0.448414

>  <placement_batch>  (102) 
openbind_a71ev2a_c1_knitwork_impure

>  <name>  (102) 
C5649-P481

>  <ref_mols>  (102) 
A0486a,A4836a

>  <smiles>  (102) 
O=C(OCc1ccc2cn[nH]c2c1)[C@H]1CC=CCC1

>  <HIPPO Compound ID>  (102) 
10379

>  <HIPPO Pose ID>  (102) 
356743

>  <ref_pdb>  (102) 
A0469a

$$$$
C4751-P558
     RDKit          3D

 11 12  0  0  0  0  0  0  0  0999 V2000
   11.6353   15.1274   21.5452 C   0  0  0  0  0  0  0  0  0  0  0  0
   11.8910   15.1409   22.9302 C   0  0  0  0  0  0  0  0  0  0  0  0
   10.6535   15.2066   23.5400 C   0  0  0  0  0  0  0  0  0  0  0  0
   10.2766   15.2759   24.8632 N   0  0  0  0  0  0  0  0  0  0  0  0
   11.3380   15.6621   25.8148 C   0  0  0  0  0  0  0  0  0  0  0  0
   10.8802   15.6755   27.2822 C   0  0  0  0  0  0  0  0  0  0  0  0
    9.6234   16.4102   27.4967 N   0  0  0  0  0  0  0  0  0  0  0  0
    8.5904   15.7167   26.6963 C   0  0  0  0  0  0  0  0  0  0  0  0
    8.8995   15.7260   25.1846 C   0  0  0  0  0  0  0  0  0  0  0  0
    9.7606   15.1941   22.4919 N   0  0  0  0  0  0  0  0  0  0  0  0
   10.3301   15.1640   21.2755 N   0  0  0  0  0  0  0  0  0  0  0  0
  1  2  1  0
  2  3  2  0
  3  4  1  0
  4  5  1  0
  5  6  1  0
  6  7  1  0
  7  8  1  0
  8  9  1  0
  3 10  1  0
 10 11  1  0
 11  1  2  0
  9  4  1  0
M  END
>  <inchikey>  (103) 
GMRFHKBAYYYVFF-UHFFFAOYSA-N

>  <energy_score>  (103) 
-28.38043

>  <subsites>  (103) 
1 - Active Site

>  <alias>  (103) 
C4751-P558

>  <tags>  (103) 
openbind_a71ev2a_c1_scaffolds,BulkDock Fragalysis export,openbind_a71ev2a_c1_knitwork_impure,fragmenstein_placed

>  <distance_score>  (103) 
0.963381

>  <placement_batch>  (103) 
openbind_a71ev2a_c1_knitwork_impure

>  <name>  (103) 
C4751-P558

>  <ref_mols>  (103) 
A0556a,A5079b

>  <smiles>  (103) 
c1cc(N2CCNCC2)[nH]n1

>  <HIPPO Compound ID>  (103) 
92873

>  <HIPPO Pose ID>  (103) 
357154

>  <ref_pdb>  (103) 
A0469a

$$$$
C2493-P225
     RDKit          3D

 19 21  0  0  0  0  0  0  0  0999 V2000
    9.3721    9.6434   23.3758 O   0  0  0  0  0  0  0  0  0  0  0  0
    8.9467   10.6977   23.7802 C   0  0  0  0  0  0  0  0  0  0  0  0
    9.5095   12.1210   23.5501 C   0  0  0  0  0  0  0  0  0  0  0  0
   10.6209   12.3552   23.1436 O   0  0  0  0  0  0  0  0  0  0  0  0
    8.5287   12.9907   23.9974 N   0  0  0  0  0  0  0  0  0  0  0  0
    8.5890   14.4427   24.0137 C   0  0  0  0  0  0  0  0  0  0  0  0
    9.5164   15.2105   23.0419 C   0  0  0  0  0  0  0  0  0  0  0  0
   10.9739   15.2808   23.5352 C   0  0  0  0  0  0  0  0  0  0  0  0
   11.9195   15.8723   22.4942 C   0  0  0  0  0  0  0  0  0  0  0  0
   11.7531   15.2535   21.1946 N   0  0  0  0  0  0  0  0  0  0  0  0
   10.4117   15.4762   20.6727 C   0  0  0  0  0  0  0  0  0  0  0  0
    9.3823   14.7907   21.5698 C   0  0  0  0  0  0  0  0  0  0  0  0
    7.5604   12.2623   24.7277 C   0  0  0  0  0  0  0  0  0  0  0  0
    6.5398   12.7330   25.5334 C   0  0  0  0  0  0  0  0  0  0  0  0
    5.7656   11.7899   26.2252 C   0  0  0  0  0  0  0  0  0  0  0  0
    4.4081   12.3965   27.3972 Br  0  0  0  0  0  0  0  0  0  0  0  0
    5.9888   10.4069   26.0887 C   0  0  0  0  0  0  0  0  0  0  0  0
    7.0043    9.9443   25.2560 C   0  0  0  0  0  0  0  0  0  0  0  0
    7.7723   10.8918   24.6144 C   0  0  0  0  0  0  0  0  0  0  0  0
  1  2  2  0
  2  3  1  0
  3  4  2  0
  3  5  1  0
  5  6  1  0
  6  7  1  0
  7  8  1  0
  8  9  1  0
  9 10  1  0
 10 11  1  0
 11 12  1  0
  5 13  1  0
 13 14  2  0
 14 15  1  0
 15 16  1  0
 15 17  2  0
 17 18  1  0
 18 19  2  0
 19  2  1  0
 12  7  1  0
 19 13  1  0
M  END
>  <inchikey>  (104) 
OSQOBRFFSJVYOU-UHFFFAOYSA-N

>  <energy_score>  (104) 
-13.908876

>  <subsites>  (104) 
1 - Active Site

>  <alias>  (104) 
C2493-P225

>  <tags>  (104) 
openbind_a71ev2a_c1_scaffolds,BulkDock Fragalysis export,openbind_a71ev2a_c1_knitwork_impure,fragmenstein_placed

>  <distance_score>  (104) 
0.915184

>  <placement_batch>  (104) 
openbind_a71ev2a_c1_knitwork_impure

>  <name>  (104) 
C2493-P225

>  <ref_mols>  (104) 
A3858a,A2513a

>  <smiles>  (104) 
O=C1C(=O)N(CC2CCNCC2)c2cc(Br)ccc21

>  <HIPPO Compound ID>  (104) 
82633

>  <HIPPO Pose ID>  (104) 
359184

>  <ref_pdb>  (104) 
A0469a

$$$$
C2494-P225
     RDKit          3D

 17 19  0  0  0  0  0  0  0  0999 V2000
    8.8688    9.2311   23.7206 O   0  0  0  0  0  0  0  0  0  0  0  0
    8.5588   10.3580   24.0217 C   0  0  0  0  0  0  0  0  0  0  0  0
    9.1773   11.6633   23.5082 C   0  0  0  0  0  0  0  0  0  0  0  0
   10.0942   11.7050   22.7279 O   0  0  0  0  0  0  0  0  0  0  0  0
    8.4599   12.6934   24.0835 N   0  0  0  0  0  0  0  0  0  0  0  0
    8.5174   14.0857   23.6732 C   0  0  0  0  0  0  0  0  0  0  0  0
    9.5960   14.4593   22.6364 C   0  0  2  0  0  0  0  0  0  0  0  0
   10.9947   14.6059   23.2249 C   0  0  0  0  0  0  0  0  0  0  0  0
   11.7276   15.4240   22.1740 C   0  0  0  0  0  0  0  0  0  0  0  0
   10.6318   16.1362   21.3930 C   0  0  0  0  0  0  0  0  0  0  0  0
    9.3778   15.8068   22.0877 N   0  0  0  0  0  0  0  0  0  0  0  0
    7.4686   12.1674   24.9296 C   0  0  0  0  0  0  0  0  0  0  0  0
    6.5361   12.8334   25.6993 C   0  0  0  0  0  0  0  0  0  0  0  0
    5.6612   12.0641   26.4802 C   0  0  0  0  0  0  0  0  0  0  0  0
    5.7135   10.6582   26.4626 C   0  0  0  0  0  0  0  0  0  0  0  0
    6.6322    9.9985   25.6544 C   0  0  0  0  0  0  0  0  0  0  0  0
    7.4998   10.7759   24.9253 C   0  0  0  0  0  0  0  0  0  0  0  0
  1  2  2  0
  2  3  1  0
  3  4  2  0
  3  5  1  0
  5  6  1  0
  7  6  1  1
  7  8  1  0
  8  9  1  0
  9 10  1  0
 10 11  1  0
  5 12  1  0
 12 13  2  0
 13 14  1  0
 14 15  2  0
 15 16  1  0
 16 17  2  0
 17  2  1  0
 11  7  1  0
 17 12  1  0
M  END
>  <inchikey>  (105) 
CJXLGMYFPUVARV-UHFFFAOYSA-N

>  <energy_score>  (105) 
-20.678379

>  <subsites>  (105) 
1 - Active Site

>  <alias>  (105) 
C2494-P225

>  <tags>  (105) 
openbind_a71ev2a_c1_scaffolds,BulkDock Fragalysis export,openbind_a71ev2a_c1_knitwork_impure,fragmenstein_placed

>  <distance_score>  (105) 
0.851261

>  <placement_batch>  (105) 
openbind_a71ev2a_c1_knitwork_impure

>  <name>  (105) 
C2494-P225

>  <ref_mols>  (105) 
A3858a,A2513a

>  <smiles>  (105) 
O=C1C(=O)N(C[C@@H]2CCCN2)c2ccccc21

>  <HIPPO Compound ID>  (105) 
4764

>  <HIPPO Pose ID>  (105) 
359185

>  <ref_pdb>  (105) 
A0469a

$$$$
C2499-P225
     RDKit          3D

 19 21  0  0  0  0  0  0  0  0999 V2000
    8.8750    9.4430   23.7411 O   0  0  0  0  0  0  0  0  0  0  0  0
    8.5293   10.5644   24.0252 C   0  0  0  0  0  0  0  0  0  0  0  0
    9.1165   11.8939   23.5047 C   0  0  0  0  0  0  0  0  0  0  0  0
   10.0687   11.9479   22.7690 O   0  0  0  0  0  0  0  0  0  0  0  0
    8.3456   12.8993   24.0546 N   0  0  0  0  0  0  0  0  0  0  0  0
    8.3448   14.3199   23.7399 C   0  0  0  0  0  0  0  0  0  0  0  0
    9.4996   15.0053   22.9904 C   0  0  0  0  0  0  0  0  0  0  0  0
   10.8739   14.8341   23.6436 C   0  0  0  0  0  0  0  0  0  0  0  0
   11.9432   15.5597   22.8330 C   0  0  0  0  0  0  0  0  0  0  0  0
   11.9494   15.1165   21.4522 N   0  0  0  0  0  0  0  0  0  0  0  0
   10.6912   15.4238   20.7817 C   0  0  0  0  0  0  0  0  0  0  0  0
    9.5198   14.7315   21.4801 C   0  0  0  0  0  0  0  0  0  0  0  0
    7.3760   12.3340   24.9111 C   0  0  0  0  0  0  0  0  0  0  0  0
    6.4393   12.9825   25.6939 C   0  0  0  0  0  0  0  0  0  0  0  0
    5.6405   12.2093   26.5431 C   0  0  0  0  0  0  0  0  0  0  0  0
    5.7660   10.8106   26.5747 C   0  0  0  0  0  0  0  0  0  0  0  0
    4.7704    9.8585   27.8754 Br  0  0  0  0  0  0  0  0  0  0  0  0
    6.6542   10.1515   25.7285 C   0  0  0  0  0  0  0  0  0  0  0  0
    7.4582   10.9449   24.9345 C   0  0  0  0  0  0  0  0  0  0  0  0
  1  2  2  0
  2  3  1  0
  3  4  2  0
  3  5  1  0
  5  6  1  0
  6  7  1  0
  7  8  1  0
  8  9  1  0
  9 10  1  0
 10 11  1  0
 11 12  1  0
  5 13  1  0
 13 14  2  0
 14 15  1  0
 15 16  2  0
 16 17  1  0
 16 18  1  0
 18 19  2  0
 19  2  1  0
 12  7  1  0
 19 13  1  0
M  END
>  <inchikey>  (106) 
WVOIPXNGWQBXDQ-UHFFFAOYSA-N

>  <energy_score>  (106) 
-9.05764

>  <subsites>  (106) 
1 - Active Site

>  <alias>  (106) 
C2499-P225

>  <tags>  (106) 
openbind_a71ev2a_c1_scaffolds,BulkDock Fragalysis export,openbind_a71ev2a_c1_knitwork_impure,fragmenstein_placed

>  <distance_score>  (106) 
0.841464

>  <placement_batch>  (106) 
openbind_a71ev2a_c1_knitwork_impure

>  <name>  (106) 
C2499-P225

>  <ref_mols>  (106) 
A3858a,A2513a

>  <smiles>  (106) 
O=C1C(=O)N(CC2CCNCC2)c2ccc(Br)cc21

>  <HIPPO Compound ID>  (106) 
7520

>  <HIPPO Pose ID>  (106) 
359190

>  <ref_pdb>  (106) 
A0469a

$$$$
C9370-P276
     RDKit          3D

 15 15  0  0  0  0  0  0  0  0999 V2000
   11.1385   15.4389   20.1018 C   0  0  0  0  0  0  0  0  0  0  0  0
   10.1421   15.4606   21.2467 C   0  0  0  0  0  0  0  0  0  0  0  0
   10.1470   14.1784   21.8826 O   0  0  0  0  0  0  0  0  0  0  0  0
    9.8137   14.3303   23.2983 N   0  0  0  0  0  0  0  0  0  0  0  0
   11.0199   13.9829   24.0329 C   0  0  0  0  0  0  0  0  0  0  0  0
   12.1373   14.9708   23.7781 C   0  0  0  0  0  0  0  0  0  0  0  0
    8.3236   13.6714   23.7511 S   0  0  1  0  0  0  0  0  0  0  0  0
    7.9571   14.4843   24.9850 N   0  0  0  0  0  0  0  0  0  0  0  0
    7.5399   13.4931   22.5508 O   0  0  0  0  0  0  0  0  0  0  0  0
    8.4977   12.1137   24.3918 N   0  0  0  0  0  0  0  0  0  0  0  0
    9.1996   11.0810   23.6457 C   0  0  0  0  0  0  0  0  0  0  0  0
    8.5725    9.7429   23.9794 C   0  0  0  0  0  0  0  0  0  0  0  0
    7.4981   10.0357   24.9979 C   0  0  0  0  0  0  0  0  0  0  0  0
    7.2718   11.5213   24.9213 C   0  0  0  0  0  0  0  0  0  0  0  0
    7.9125   15.4657   24.7208 H   0  0  0  0  0  0  0  0  0  0  0  0
  1  2  1  0
  2  3  1  0
  3  4  1  0
  4  5  1  0
  5  6  1  0
  7  4  1  6
  7  8  2  0
  7  9  2  0
  7 10  1  0
 10 11  1  0
 11 12  1  0
 12 13  1  0
 13 14  1  0
 14 10  1  0
  8 15  1  0
M  END
>  <inchikey>  (107) 
QJWWGHKEHQNEQY-UHFFFAOYSA-N

>  <energy_score>  (107) 
-64.221586

>  <subsites>  (107) 
1 - Active Site

>  <alias>  (107) 
C9370-P276

>  <tags>  (107) 
openbind_a71ev2a_c1_scaffolds,BulkDock Fragalysis export,openbind_a71ev2a_c1_knitwork_impure,fragmenstein_placed

>  <distance_score>  (107) 
0.975859

>  <placement_batch>  (107) 
openbind_a71ev2a_c1_knitwork_impure

>  <name>  (107) 
C9370-P276

>  <ref_mols>  (107) 
A4032a,A0719a

>  <smiles>  (107) 
[H]N=[S@](=O)(N1CCCC1)N(CC)OCC

>  <HIPPO Compound ID>  (107) 
34336

>  <HIPPO Pose ID>  (107) 
359584

>  <ref_pdb>  (107) 
A4029a

$$$$
C9393-P77
     RDKit          3D

 15 15  0  0  0  0  0  0  0  0999 V2000
   11.3085   14.7672   18.5575 C   0  0  0  0  0  0  0  0  0  0  0  0
   10.5984   15.7712   19.4300 C   0  0  0  0  0  0  0  0  0  0  0  0
   11.2469   15.8190   20.8120 C   0  0  0  0  0  0  0  0  0  0  0  0
   10.7259   14.6968   21.6737 C   0  0  1  0  0  0  0  0  0  0  0  0
   11.8836   14.4545   23.2120 Br  0  0  0  0  0  0  0  0  0  0  0  0
    9.2747   14.9469   22.0521 C   0  0  0  0  0  0  0  0  0  0  0  0
    9.0278   14.5471   23.4188 N   0  0  0  0  0  0  0  0  0  0  0  0
    7.7115   13.6894   23.8136 S   0  0  0  0  0  0  0  0  0  0  0  0
    7.0080   14.4153   24.8348 O   0  0  0  0  0  0  0  0  0  0  0  0
    7.1018   13.1551   22.6215 O   0  0  0  0  0  0  0  0  0  0  0  0
    8.4706   12.4388   24.6044 N   0  0  0  0  0  0  0  0  0  0  0  0
    9.5030   11.6691   23.8849 C   0  0  0  0  0  0  0  0  0  0  0  0
    9.1271   10.2159   24.0295 C   0  0  0  0  0  0  0  0  0  0  0  0
    8.1214   10.1848   25.1494 C   0  0  0  0  0  0  0  0  0  0  0  0
    7.5015   11.5412   25.2380 C   0  0  0  0  0  0  0  0  0  0  0  0
  1  2  1  0
  2  3  1  0
  3  4  1  0
  4  5  1  1
  4  6  1  0
  6  7  1  0
  7  8  1  0
  8  9  2  0
  8 10  2  0
  8 11  1  0
 11 12  1  0
 12 13  1  0
 13 14  1  0
 14 15  1  0
 15 11  1  0
M  END
>  <inchikey>  (108) 
YUJANCLQKWVXAZ-UHFFFAOYSA-N

>  <energy_score>  (108) 
-77.534816

>  <subsites>  (108) 
1 - Active Site

>  <alias>  (108) 
C9393-P77

>  <tags>  (108) 
openbind_a71ev2a_c1_scaffolds,BulkDock Fragalysis export,openbind_a71ev2a_c1_knitwork_impure,fragmenstein_placed

>  <distance_score>  (108) 
0.929385

>  <placement_batch>  (108) 
openbind_a71ev2a_c1_knitwork_impure

>  <name>  (108) 
C9393-P77

>  <ref_mols>  (108) 
A4032a,A0719a

>  <smiles>  (108) 
CCC[C@@H](Br)CNS(=O)(=O)N1CCCC1

>  <HIPPO Compound ID>  (108) 
18943

>  <HIPPO Pose ID>  (108) 
359603

>  <ref_pdb>  (108) 
A4029a

$$$$
C9394-P276
     RDKit          3D

 13 13  0  0  0  0  0  0  0  0999 V2000
    5.5477   10.5573   27.1108 C   0  0  0  0  0  0  0  0  0  0  0  0
    5.9432    9.8419   26.0488 C   0  0  0  0  0  0  0  0  0  0  0  0
    7.1240   10.0674   25.1470 C   0  0  0  0  0  0  0  0  0  0  0  0
    7.9442   11.1563   25.5436 O   0  0  0  0  0  0  0  0  0  0  0  0
    7.3437   12.4264   25.3205 C   0  0  0  0  0  0  0  0  0  0  0  0
    8.0177   13.2332   24.2242 C   0  0  1  0  0  0  0  0  0  0  0  0
    7.5138   14.5774   24.3167 O   0  0  0  0  0  0  0  0  0  0  0  0
    9.5504   13.2762   24.3199 C   0  0  0  0  0  0  0  0  0  0  0  0
   10.0529   14.4167   23.5233 N   0  0  0  0  0  0  0  0  0  0  0  0
   11.4729   14.6736   23.7661 C   0  0  0  0  0  0  0  0  0  0  0  0
   11.8082   15.6372   22.6431 C   0  0  0  0  0  0  0  0  0  0  0  0
   10.9334   15.2046   21.4783 C   0  0  0  0  0  0  0  0  0  0  0  0
    9.9694   14.1903   22.0743 C   0  0  0  0  0  0  0  0  0  0  0  0
  1  2  2  0
  2  3  1  0
  3  4  1  0
  4  5  1  0
  5  6  1  0
  6  7  1  1
  6  8  1  0
  8  9  1  0
  9 10  1  0
 10 11  1  0
 11 12  1  0
 12 13  1  0
 13  9  1  0
M  END
>  <inchikey>  (109) 
GOLAEVZHHBNYFC-UHFFFAOYSA-N

>  <energy_score>  (109) 
-23.697264

>  <subsites>  (109) 
1 - Active Site

>  <alias>  (109) 
C9394-P276

>  <tags>  (109) 
openbind_a71ev2a_c1_scaffolds,BulkDock Fragalysis export,openbind_a71ev2a_c1_knitwork_impure,fragmenstein_placed

>  <distance_score>  (109) 
0.917698

>  <placement_batch>  (109) 
openbind_a71ev2a_c1_knitwork_impure

>  <name>  (109) 
C9394-P276

>  <ref_mols>  (109) 
A4032a,A0719a

>  <smiles>  (109) 
C=CCOC[C@@H](O)CN1CCCC1

>  <HIPPO Compound ID>  (109) 
6038

>  <HIPPO Pose ID>  (109) 
359604

>  <ref_pdb>  (109) 
A4029a

$$$$
C9396-P276
     RDKit          3D

 14 14  0  0  0  0  0  0  0  0999 V2000
    4.7814   12.0032   26.5248 C   0  0  0  0  0  0  0  0  0  0  0  0
    5.3794   10.6334   26.8197 C   0  0  0  0  0  0  0  0  0  0  0  0
    5.5658   10.5814   28.3356 C   0  0  0  0  0  0  0  0  0  0  0  0
    6.5957   10.2940   25.9364 C   0  0  0  0  0  0  0  0  0  0  0  0
    7.5290   11.3688   25.7717 O   0  0  0  0  0  0  0  0  0  0  0  0
    7.3367   11.9871   24.4965 C   0  0  0  0  0  0  0  0  0  0  0  0
    8.2156   13.2154   24.2521 C   0  0  1  0  0  0  0  0  0  0  0  0
    8.1645   14.0864   25.3820 O   0  0  0  0  0  0  0  0  0  0  0  0
    9.6547   12.8087   23.8957 C   0  0  0  0  0  0  0  0  0  0  0  0
   10.4854   13.7771   23.1875 N   0  0  0  0  0  0  0  0  0  0  0  0
   11.0521   14.8456   23.9902 C   0  0  0  0  0  0  0  0  0  0  0  0
   11.6805   15.7433   22.9302 C   0  0  0  0  0  0  0  0  0  0  0  0
   11.0342   15.3587   21.6082 C   0  0  0  0  0  0  0  0  0  0  0  0
    9.9090   14.4314   22.0172 C   0  0  0  0  0  0  0  0  0  0  0  0
  1  2  1  0
  2  3  1  0
  2  4  1  0
  4  5  1  0
  5  6  1  0
  6  7  1  0
  7  8  1  1
  7  9  1  0
  9 10  1  0
 10 11  1  0
 11 12  1  0
 12 13  1  0
 13 14  1  0
 14 10  1  0
M  END
>  <inchikey>  (110) 
IIGXHTIDEPJZDV-UHFFFAOYSA-N

>  <energy_score>  (110) 
-26.246961

>  <subsites>  (110) 
1 - Active Site

>  <alias>  (110) 
C9396-P276

>  <tags>  (110) 
openbind_a71ev2a_c1_scaffolds,BulkDock Fragalysis export,openbind_a71ev2a_c1_knitwork_impure,fragmenstein_placed

>  <distance_score>  (110) 
0.966217

>  <placement_batch>  (110) 
openbind_a71ev2a_c1_knitwork_impure

>  <name>  (110) 
C9396-P276

>  <ref_mols>  (110) 
A4032a,A0719a

>  <smiles>  (110) 
CC(C)COC[C@@H](O)CN1CCCC1

>  <HIPPO Compound ID>  (110) 
2124

>  <HIPPO Pose ID>  (110) 
359606

>  <ref_pdb>  (110) 
A4029a

$$$$
C956-P51
     RDKit          3D

 18 20  0  0  0  0  0  0  0  0999 V2000
   22.4482   14.4859    2.9898 C   0  0  0  0  0  0  0  0  0  0  0  0
   22.8345   13.8479    1.7150 C   0  0  0  0  0  0  0  0  0  0  0  0
   22.1499   13.8647    0.5884 N   0  0  0  0  0  0  0  0  0  0  0  0
   22.8702   13.1813   -0.3643 N   0  0  0  0  0  0  0  0  0  0  0  0
   23.9805   12.7545    0.2017 C   0  0  0  0  0  0  0  0  0  0  0  0
   23.9908   13.1470    1.5133 N   0  0  0  0  0  0  0  0  0  0  0  0
   25.0970   12.9504    2.4250 C   0  0  0  0  0  0  0  0  0  0  0  0
   26.1345   11.9574    1.8956 C   0  0  0  0  0  0  0  0  0  0  0  0
   26.3930   12.1649    0.4011 C   0  0  0  0  0  0  0  0  0  0  0  0
   25.0993   11.9809   -0.4036 C   0  0  2  0  0  0  0  0  0  0  0  0
   25.2616   12.4016   -1.7707 N   0  0  0  0  0  0  0  0  0  0  0  0
   26.2177   11.8890   -2.8719 C   0  0  0  0  0  0  0  0  0  0  0  0
   27.0742   11.1002   -2.8213 O   0  0  0  0  0  0  0  0  0  0  0  0
   25.8509   12.6575   -4.1369 C   0  0  0  0  0  0  0  0  0  0  0  0
   26.6952   12.2555   -5.3552 C   0  0  0  0  0  0  0  0  0  0  0  0
   26.4204   13.0678   -6.6516 C   0  0  0  0  0  0  0  0  0  0  0  0
   27.8006   14.1880   -6.2620 S   0  0  0  0  0  0  0  0  0  0  0  0
   28.1960   12.6708   -5.3315 C   0  0  0  0  0  0  0  0  0  0  0  0
  1  2  1  0
  2  3  2  0
  3  4  1  0
  4  5  2  0
  5  6  1  0
  6  7  1  0
  7  8  1  0
  8  9  1  0
  9 10  1  0
 10 11  1  6
 11 12  1  0
 12 13  2  0
 12 14  1  0
 14 15  1  0
 15 16  1  0
 16 17  1  0
 17 18  1  0
  6  2  1  0
 18 15  1  0
 10  5  1  0
M  END
>  <inchikey>  (111) 
FIVHXQGGXYYQJB-UHFFFAOYSA-N

>  <energy_score>  (111) 
-25.478688

>  <subsites>  (111) 
6 - A0486/A/147/1,1 - Active Site

>  <alias>  (111) 
C956-P51

>  <tags>  (111) 
openbind_a71ev2a_c1_scaffolds,BulkDock Fragalysis export,openbind_a71ev2a_c1_knitwork_impure,fragmenstein_placed

>  <distance_score>  (111) 
0.34347

>  <placement_batch>  (111) 
openbind_a71ev2a_c1_knitwork_impure

>  <name>  (111) 
C956-P51

>  <ref_mols>  (111) 
A3616a,A4855a,A0239a,A4032a,A4274a,A3207a,A3982a

>  <smiles>  (111) 
Cc1nnc2n1CCC[C@@H]2NC(=O)CC1CSC1

>  <HIPPO Compound ID>  (111) 
11982

>  <HIPPO Pose ID>  (111) 
359869

>  <ref_pdb>  (111) 
A4029a

$$$$
C8846-P212
     RDKit          3D

 15 17  0  0  0  0  0  0  0  0999 V2000
    8.1010   13.6778   24.5647 C   0  0  0  0  0  0  0  0  0  0  0  0
    9.1767   13.9134   23.7957 C   0  0  0  0  0  0  0  0  0  0  0  0
    9.6648   15.1498   23.4060 N   0  0  0  0  0  0  0  0  0  0  0  0
   11.0490   15.5212   23.7238 C   0  0  0  0  0  0  0  0  0  0  0  0
   11.9986   15.1713   22.5870 C   0  0  0  0  0  0  0  0  0  0  0  0
   11.5444   15.8014   21.2780 C   0  0  0  0  0  0  0  0  0  0  0  0
   10.0964   15.4276   20.9794 C   0  0  0  0  0  0  0  0  0  0  0  0
    9.1750   15.7662   22.1521 C   0  0  0  0  0  0  0  0  0  0  0  0
    9.8668   12.6259   23.3917 C   0  0  0  0  0  0  0  0  0  0  0  0
    8.9578   11.6037   23.9880 C   0  0  0  0  0  0  0  0  0  0  0  0
    9.0236   10.2278   23.9062 C   0  0  0  0  0  0  0  0  0  0  0  0
    8.0792    9.4919   24.6181 C   0  0  0  0  0  0  0  0  0  0  0  0
    7.1005   10.1252   25.4012 C   0  0  0  0  0  0  0  0  0  0  0  0
    7.0393   11.5176   25.4595 C   0  0  0  0  0  0  0  0  0  0  0  0
    7.9625   12.2433   24.7310 C   0  0  0  0  0  0  0  0  0  0  0  0
  1  2  2  0
  2  3  1  0
  3  4  1  0
  4  5  1  0
  5  6  1  0
  6  7  1  0
  7  8  1  0
  2  9  1  0
  9 10  1  0
 10 11  2  0
 11 12  1  0
 12 13  2  0
 13 14  1  0
 14 15  2  0
 15  1  1  0
  8  3  1  0
 15 10  1  0
M  END
>  <inchikey>  (112) 
GZMCLAHOGOMNFO-UHFFFAOYSA-N

>  <energy_score>  (112) 
-14.228889

>  <subsites>  (112) 
1 - Active Site

>  <alias>  (112) 
C8846-P212

>  <tags>  (112) 
openbind_a71ev2a_c1_scaffolds,BulkDock Fragalysis export,openbind_a71ev2a_c1_knitwork_impure,fragmenstein_placed

>  <distance_score>  (112) 
0.970947

>  <placement_batch>  (112) 
openbind_a71ev2a_c1_knitwork_impure

>  <name>  (112) 
C8846-P212

>  <ref_mols>  (112) 
A1778a,A3546a

>  <smiles>  (112) 
C1=C(N2CCCCC2)Cc2ccccc21

>  <HIPPO Compound ID>  (112) 
33638

>  <HIPPO Pose ID>  (112) 
359939

>  <ref_pdb>  (112) 
A4029a

$$$$
C4761-P619
     RDKit          3D

 11 12  0  0  0  0  0  0  0  0999 V2000
    7.1749   10.6324   25.3217 C   0  0  0  0  0  0  0  0  0  0  0  0
    7.4637    9.3613   25.0494 N   0  0  0  0  0  0  0  0  0  0  0  0
    8.4677    9.4392   24.1581 N   0  0  0  0  0  0  0  0  0  0  0  0
    8.8051   10.7240   23.8561 C   0  0  0  0  0  0  0  0  0  0  0  0
    7.9656   11.5430   24.5876 C   0  0  0  0  0  0  0  0  0  0  0  0
    7.9224   13.0409   24.5993 C   0  0  1  0  0  0  0  0  0  0  0  0
    8.2589   13.5965   23.2007 C   0  0  0  0  0  0  0  0  0  0  0  0
    8.3194   15.3950   23.1902 S   0  0  0  0  0  0  0  0  0  0  0  0
    6.6706   15.6929   23.8990 C   0  0  0  0  0  0  0  0  0  0  0  0
    6.4899   14.9224   25.2123 C   0  0  0  0  0  0  0  0  0  0  0  0
    6.5968   13.4593   25.0991 N   0  0  0  0  0  0  0  0  0  0  0  0
  1  2  2  0
  2  3  1  0
  3  4  1  0
  4  5  2  0
  6  5  1  6
  6  7  1  0
  7  8  1  0
  8  9  1  0
  9 10  1  0
 10 11  1  0
  5  1  1  0
 11  6  1  0
M  END
>  <inchikey>  (113) 
ZXIQETDVUZSVBJ-UHFFFAOYSA-N

>  <energy_score>  (113) 
-35.82043

>  <subsites>  (113) 
1 - Active Site

>  <alias>  (113) 
C4761-P619

>  <tags>  (113) 
openbind_a71ev2a_c1_scaffolds,BulkDock Fragalysis export,openbind_a71ev2a_c1_knitwork_impure,fragmenstein_placed

>  <distance_score>  (113) 
0.893035

>  <placement_batch>  (113) 
openbind_a71ev2a_c1_knitwork_impure

>  <name>  (113) 
C4761-P619

>  <ref_mols>  (113) 
A5427a,A0556a

>  <smiles>  (113) 
c1n[nH]cc1[C@H]1CSCCN1

>  <HIPPO Compound ID>  (113) 
35059

>  <HIPPO Pose ID>  (113) 
360115

>  <ref_pdb>  (113) 
A4029a

$$$$
C31977-P124
     RDKit          3D

 15 16  0  0  0  0  0  0  0  0999 V2000
    6.5262   12.8905   27.8866 C   0  0  0  0  0  0  0  0  0  0  0  0
    5.9935   12.6323   26.4829 C   0  0  1  0  0  0  0  0  0  0  0  0
    4.8155   11.9413   26.6525 F   0  0  0  0  0  0  0  0  0  0  0  0
    5.6743   13.8907   25.7958 C   0  0  0  0  0  0  0  0  0  0  0  0
    5.4473   14.9030   25.2775 N   0  0  0  0  0  0  0  0  0  0  0  0
    6.9078   11.7559   25.6087 C   0  0  0  0  0  0  0  0  0  0  0  0
    8.3339   12.1108   25.5749 N   0  0  0  0  0  0  0  0  0  0  0  0
    8.6858   13.4875   25.1493 C   0  0  0  0  0  0  0  0  0  0  0  0
   10.1178   13.4610   24.6368 C   0  0  0  0  0  0  0  0  0  0  0  0
   10.1859   12.0706   24.1319 C   0  0  0  0  0  0  0  0  0  0  0  0
   11.1148   11.5090   23.2709 C   0  0  0  0  0  0  0  0  0  0  0  0
   10.9957   10.1589   22.9638 C   0  0  0  0  0  0  0  0  0  0  0  0
    9.9619    9.4047   23.5183 C   0  0  0  0  0  0  0  0  0  0  0  0
    9.0362    9.9929   24.3872 C   0  0  0  0  0  0  0  0  0  0  0  0
    9.1436   11.3341   24.6977 C   0  0  0  0  0  0  0  0  0  0  0  0
  2  1  1  1
  2  3  1  0
  2  4  1  0
  4  5  3  0
  2  6  1  0
  6  7  1  0
  7  8  1  0
  8  9  1  0
  9 10  1  0
 10 11  2  0
 11 12  1  0
 12 13  2  0
 13 14  1  0
 14 15  2  0
 15  7  1  0
 15 10  1  0
M  END
>  <inchikey>  (114) 
HVLXCUMSINBNKL-UHFFFAOYSA-N

>  <energy_score>  (114) 
-15.995182

>  <subsites>  (114) 
1 - Active Site

>  <alias>  (114) 
C31977-P124

>  <tags>  (114) 
openbind_a71ev2a_c1_scaffolds,BulkDock Fragalysis export,openbind_a71ev2a_c1_knitwork_impure,fragmenstein_placed

>  <distance_score>  (114) 
0.737281

>  <placement_batch>  (114) 
openbind_a71ev2a_c1_knitwork_impure

>  <name>  (114) 
C31977-P124

>  <ref_mols>  (114) 
A1778a,A3975a

>  <smiles>  (114) 
C[C@@](F)(C#N)CN1CCc2ccccc21

>  <HIPPO Compound ID>  (114) 
130294

>  <HIPPO Pose ID>  (114) 
360328

>  <ref_pdb>  (114) 
A4029a

$$$$
C10642-P391
     RDKit          3D

 14 14  0  0  0  0  0  0  0  0999 V2000
    5.3201   15.0302   22.0444 F   0  0  0  0  0  0  0  0  0  0  0  0
    6.5324   14.6456   22.5179 C   0  0  0  0  0  0  0  0  0  0  0  0
    6.7971   13.4373   21.9734 F   0  0  0  0  0  0  0  0  0  0  0  0
    7.4253   15.5461   22.0703 F   0  0  0  0  0  0  0  0  0  0  0  0
    6.4866   14.5752   24.0260 C   0  0  0  0  0  0  0  0  0  0  0  0
    7.8286   14.2495   24.6520 C   0  0  0  0  0  0  0  0  0  0  0  0
    8.3603   13.0468   24.0917 O   0  0  0  0  0  0  0  0  0  0  0  0
    9.5610   12.7039   24.7294 N   0  0  0  0  0  0  0  0  0  0  0  0
   10.6202   13.2463   24.1975 C   0  0  0  0  0  0  0  0  0  0  0  0
   10.6817   14.1368   23.0587 C   0  0  0  0  0  0  0  0  0  0  0  0
   11.7243   14.9862   22.7657 C   0  0  0  0  0  0  0  0  0  0  0  0
   11.4483   15.6225   21.5958 O   0  0  0  0  0  0  0  0  0  0  0  0
   10.2414   15.1142   21.2276 C   0  0  0  0  0  0  0  0  0  0  0  0
    9.7214   14.2581   22.0811 N   0  0  0  0  0  0  0  0  0  0  0  0
  1  2  1  0
  2  3  1  0
  2  4  1  0
  2  5  1  0
  5  6  1  0
  6  7  1  0
  7  8  1  0
  8  9  2  3
  9 10  1  0
 10 11  2  0
 11 12  1  0
 12 13  1  0
 13 14  2  0
 14 10  1  0
M  END
>  <inchikey>  (115) 
OORBTWFKCNWGNJ-UHFFFAOYSA-N

>  <energy_score>  (115) 
-20.679421

>  <subsites>  (115) 
1 - Active Site

>  <alias>  (115) 
C10642-P391

>  <tags>  (115) 
openbind_a71ev2a_c1_scaffolds,BulkDock Fragalysis export,openbind_a71ev2a_c1_knitwork_impure,fragmenstein_placed

>  <distance_score>  (115) 
0.925817

>  <placement_batch>  (115) 
openbind_a71ev2a_c1_knitwork_impure

>  <name>  (115) 
C10642-P391

>  <ref_mols>  (115) 
A3623a,A4526a

>  <smiles>  (115) 
FC(F)(F)CCON=Cc1cocn1

>  <HIPPO Compound ID>  (115) 
55269

>  <HIPPO Pose ID>  (115) 
360634

>  <ref_pdb>  (115) 
A4029a

$$$$
C7479-P391
     RDKit          3D

 23 24  0  0  0  0  0  0  0  0999 V2000
    3.5320   12.3410   18.0294 C   0  0  0  0  0  0  0  0  0  0  0  0
    3.2767   12.4336   19.5336 C   0  0  0  0  0  0  0  0  0  0  0  0
    2.1606   11.4723   19.9374 C   0  0  0  0  0  0  0  0  0  0  0  0
    2.9470   13.8198   19.9283 C   0  0  0  0  0  0  0  0  0  0  0  0
    2.0056   14.4403   19.1593 O   0  0  0  0  0  0  0  0  0  0  0  0
    1.9342   15.6867   19.6670 C   0  0  0  0  0  0  0  0  0  0  0  0
    2.7216   15.9190   20.6961 N   0  0  0  0  0  0  0  0  0  0  0  0
    3.3405   14.7026   20.9183 C   0  0  0  0  0  0  0  0  0  0  0  0
    4.2569   14.5093   22.0837 C   0  0  0  0  0  0  0  0  0  0  0  0
    5.4856   15.2446   21.8211 N   0  0  0  0  0  0  0  0  0  0  0  0
    6.9293   14.5800   22.3187 S   0  0  0  0  0  0  0  0  0  0  0  0
    6.7783   13.1657   22.0050 O   0  0  0  0  0  0  0  0  0  0  0  0
    7.8899   15.2839   21.4966 O   0  0  0  0  0  0  0  0  0  0  0  0
    6.8278   14.9187   23.8091 N   0  0  0  0  0  0  0  0  0  0  0  0
    8.1829   14.7438   24.5144 S   0  0  2  0  0  0  0  0  0  0  0  0
    7.9486   15.3362   26.1773 C   0  0  0  0  0  0  0  0  0  0  0  0
    9.4170   15.3520   24.0646 O   0  0  0  0  0  0  0  0  0  0  0  0
    8.5503   13.0076   24.8069 C   0  0  0  0  0  0  0  0  0  0  0  0
    9.4512   12.4172   23.7280 C   0  0  0  0  0  0  0  0  0  0  0  0
    9.8252   10.9747   24.0221 C   0  0  0  0  0  0  0  0  0  0  0  0
    8.6702   10.0758   24.3923 C   0  0  0  0  0  0  0  0  0  0  0  0
    7.6859   10.7100   25.3493 C   0  0  0  0  0  0  0  0  0  0  0  0
    7.3094   12.1487   25.0446 C   0  0  0  0  0  0  0  0  0  0  0  0
  1  2  1  0
  2  3  1  0
  2  4  1  0
  4  5  1  0
  5  6  1  0
  6  7  2  0
  7  8  1  0
  8  9  1  0
  9 10  1  0
 10 11  1  0
 11 12  2  0
 11 13  2  0
 11 14  1  0
 14 15  2  0
 15 16  1  1
 15 17  2  0
 15 18  1  0
 18 19  1  0
 19 20  1  0
 20 21  1  0
 21 22  1  0
 22 23  1  0
  8  4  2  0
 23 18  1  0
M  END
>  <inchikey>  (116) 
ULRPMLDUMSAKFM-UHFFFAOYSA-N

>  <energy_score>  (116) 
-240.440893

>  <subsites>  (116) 
1 - Active Site

>  <alias>  (116) 
C7479-P391

>  <tags>  (116) 
openbind_a71ev2a_c1_scaffolds,BulkDock Fragalysis export,openbind_a71ev2a_c1_knitwork_impure,fragmenstein_placed

>  <distance_score>  (116) 
0.818396

>  <placement_batch>  (116) 
openbind_a71ev2a_c1_knitwork_impure

>  <name>  (116) 
C7479-P391

>  <ref_mols>  (116) 
A3623a,A4526a

>  <smiles>  (116) 
CC(C)c1ocnc1CNS(=O)(=O)N=[S@](C)(=O)C1CCCCC1

>  <HIPPO Compound ID>  (116) 
3807

>  <HIPPO Pose ID>  (116) 
360702

>  <ref_pdb>  (116) 
A4029a

$$$$
C13610-P135
     RDKit          3D

 11 11  0  0  0  0  0  0  0  0999 V2000
   10.4219   14.8067   23.1064 C   0  0  0  0  0  0  0  0  0  0  0  0
   11.6764   14.1826   22.5451 C   0  0  2  0  0  0  0  0  0  0  0  0
   11.5907   13.9572   21.0564 C   0  0  0  0  0  0  0  0  0  0  0  0
   12.4481   14.3192   20.2552 O   0  0  0  0  0  0  0  0  0  0  0  0
   12.1137   12.6464   23.4179 S   0  0  0  0  0  0  0  0  0  0  0  0
   10.5769   11.8201   23.7537 C   0  0  0  0  0  0  0  0  0  0  0  0
   10.2711   10.6387   23.0893 C   0  0  0  0  0  0  0  0  0  0  0  0
    9.2025    9.8851   23.5272 C   0  0  0  0  0  0  0  0  0  0  0  0
    8.3947   10.2614   24.5408 N   0  0  0  0  0  0  0  0  0  0  0  0
    8.6876   11.4217   25.1542 C   0  0  0  0  0  0  0  0  0  0  0  0
    9.7722   12.2087   24.8213 C   0  0  0  0  0  0  0  0  0  0  0  0
  2  1  1  1
  2  3  1  0
  3  4  2  0
  2  5  1  0
  5  6  1  0
  6  7  2  0
  7  8  1  0
  8  9  2  0
  9 10  1  0
 10 11  2  0
 11  6  1  0
M  END
>  <inchikey>  (117) 
WERCHVXXXMTJME-UHFFFAOYSA-N

>  <energy_score>  (117) 
-8.354552

>  <subsites>  (117) 
1 - Active Site

>  <alias>  (117) 
C13610-P135

>  <tags>  (117) 
openbind_a71ev2a_c1_scaffolds,BulkDock Fragalysis export,openbind_a71ev2a_c1_knitwork_impure,fragmenstein_placed

>  <distance_score>  (117) 
0.961255

>  <placement_batch>  (117) 
openbind_a71ev2a_c1_knitwork_impure

>  <name>  (117) 
C13610-P135

>  <ref_mols>  (117) 
A1778a,A2629a

>  <smiles>  (117) 
C[C@H](C=O)Sc1ccncc1

>  <HIPPO Compound ID>  (117) 
1823

>  <HIPPO Pose ID>  (117) 
360941

>  <ref_pdb>  (117) 
A4029a

$$$$
C1316-P291
     RDKit          3D

 16 17  0  0  0  0  0  0  0  0999 V2000
    8.1652   13.6171   25.9553 O   0  0  0  0  0  0  0  0  0  0  0  0
    8.2230   12.7798   25.1455 C   0  0  0  0  0  0  0  0  0  0  0  0
    8.9410   12.9812   23.8145 C   0  0  0  0  0  0  0  0  0  0  0  0
    8.7423   14.4065   23.2878 C   0  0  0  0  0  0  0  0  0  0  0  0
    7.2883   14.8838   23.3466 C   0  0  2  0  0  0  0  0  0  0  0  0
    6.2950   13.9554   22.6792 C   0  0  0  0  0  0  0  0  0  0  0  0
    5.1014   14.8299   22.3617 C   0  0  0  0  0  0  0  0  0  0  0  0
    5.5336   16.2092   22.5852 N   0  0  0  0  0  0  0  0  0  0  0  0
    7.0072   16.1989   22.6431 C   0  0  0  0  0  0  0  0  0  0  0  0
    7.6252   11.3570   25.1333 N   0  0  0  0  0  0  0  0  0  0  0  0
    6.7814   10.7227   26.0412 O   0  0  0  0  0  0  0  0  0  0  0  0
    6.2165   11.6038   27.0074 C   0  0  0  0  0  0  0  0  0  0  0  0
    5.2070   12.6100   26.4667 C   0  0  0  0  0  0  0  0  0  0  0  0
    4.1699   12.7998   27.5740 C   0  0  0  0  0  0  0  0  0  0  0  0
    4.5176   11.7997   28.6700 C   0  0  0  0  0  0  0  0  0  0  0  0
    5.3861   10.7679   27.9793 C   0  0  0  0  0  0  0  0  0  0  0  0
  1  2  2  0
  2  3  1  0
  3  4  1  0
  5  4  1  6
  5  6  1  0
  6  7  1  0
  7  8  1  0
  8  9  1  0
  2 10  1  0
 10 11  1  0
 11 12  1  0
 12 13  1  0
 13 14  1  0
 14 15  1  0
 15 16  1  0
  9  5  1  0
 16 12  1  0
M  END
>  <inchikey>  (118) 
CGHAWODWSBOPHV-UHFFFAOYSA-N

>  <energy_score>  (118) 
-18.490255

>  <subsites>  (118) 
1 - Active Site

>  <alias>  (118) 
C1316-P291

>  <tags>  (118) 
openbind_a71ev2a_c1_scaffolds,BulkDock Fragalysis export,openbind_a71ev2a_c1_knitwork_impure,fragmenstein_placed

>  <distance_score>  (118) 
0.974015

>  <placement_batch>  (118) 
openbind_a71ev2a_c1_knitwork_impure

>  <name>  (118) 
C1316-P291

>  <ref_mols>  (118) 
A1080a,A4308a

>  <smiles>  (118) 
O=C(CC[C@@H]1CCNC1)NOC1CCCC1

>  <HIPPO Compound ID>  (118) 
1169

>  <HIPPO Pose ID>  (118) 
361224

>  <ref_pdb>  (118) 
A4029a

$$$$
C40870-P182
     RDKit          3D

 18 18  0  0  0  0  0  0  0  0999 V2000
   12.4966   14.6111   22.7866 C   0  0  0  0  0  0  0  0  0  0  0  0
   11.2781   13.8565   23.2407 C   0  0  0  0  0  0  0  0  0  0  0  0
   10.2538   13.7581   22.1307 C   0  0  0  0  0  0  0  0  0  0  0  0
    9.3525   14.9198   22.0814 N   0  0  0  0  0  0  0  0  0  0  0  0
    9.7584   16.0478   21.1780 C   0  0  0  0  0  0  0  0  0  0  0  0
    9.7695   15.7443   19.6961 C   0  0  0  0  0  0  0  0  0  0  0  0
   11.0560   15.1123   19.1980 C   0  0  0  0  0  0  0  0  0  0  0  0
    7.7122   14.6267   22.2862 S   0  0  0  0  0  0  0  0  0  0  0  0
    7.3659   13.2553   22.0110 O   0  0  0  0  0  0  0  0  0  0  0  0
    6.9860   15.6727   21.6269 O   0  0  0  0  0  0  0  0  0  0  0  0
    7.4062   14.8962   23.8985 N   0  0  0  0  0  0  0  0  0  0  0  0
    8.0354   14.1693   25.0023 C   0  0  1  0  0  0  0  0  0  0  0  0
    7.3768   14.6552   26.3003 C   0  0  0  0  0  0  0  0  0  0  0  0
    8.0105   12.6826   24.8800 C   0  0  0  0  0  0  0  0  0  0  0  0
    7.0505   11.7668   25.2451 C   0  0  0  0  0  0  0  0  0  0  0  0
    7.5008   10.5189   24.9345 O   0  0  0  0  0  0  0  0  0  0  0  0
    8.7173   10.7430   24.3686 C   0  0  0  0  0  0  0  0  0  0  0  0
    9.1044   11.9983   24.3908 N   0  0  0  0  0  0  0  0  0  0  0  0
  1  2  1  0
  2  3  1  0
  3  4  1  0
  4  5  1  0
  5  6  1  0
  6  7  1  0
  4  8  1  0
  8  9  2  0
  8 10  2  0
  8 11  1  0
 11 12  1  0
 12 13  1  1
 12 14  1  0
 14 15  2  0
 15 16  1  0
 16 17  1  0
 17 18  2  0
 18 14  1  0
M  END
>  <inchikey>  (119) 
JTKBNXRWTLWVNM-UHFFFAOYSA-N

>  <energy_score>  (119) 
-43.614758

>  <subsites>  (119) 
1 - Active Site

>  <alias>  (119) 
C40870-P182

>  <tags>  (119) 
openbind_a71ev2a_c1_scaffolds,BulkDock Fragalysis export,openbind_a71ev2a_c1_knitwork_impure,fragmenstein_placed

>  <distance_score>  (119) 
0.963855

>  <placement_batch>  (119) 
openbind_a71ev2a_c1_knitwork_impure

>  <name>  (119) 
C40870-P182

>  <ref_mols>  (119) 
A0719a,A3435a

>  <smiles>  (119) 
CCCN(CCC)S(=O)(=O)N[C@@H](C)c1cocn1

>  <HIPPO Compound ID>  (119) 
1803

>  <HIPPO Pose ID>  (119) 
361304

>  <ref_pdb>  (119) 
A4029a

$$$$
C727-P440
     RDKit          3D

 12 13  0  0  0  0  0  0  0  0999 V2000
    7.0402   11.7577   25.2691 C   0  0  0  0  0  0  0  0  0  0  0  0
    7.6315   12.7331   24.4734 C   0  0  0  0  0  0  0  0  0  0  0  0
    8.8228   12.4382   23.8210 C   0  0  0  0  0  0  0  0  0  0  0  0
    9.5287   13.3568   23.0388 N   0  0  0  0  0  0  0  0  0  0  0  0
   10.7244   13.8787   23.7157 C   0  0  0  0  0  0  0  0  0  0  0  0
   11.6857   14.4388   22.6749 C   0  0  0  0  0  0  0  0  0  0  0  0
   11.0178   15.4962   21.8092 C   0  0  0  0  0  0  0  0  0  0  0  0
    9.7301   14.9534   21.1975 C   0  0  0  0  0  0  0  0  0  0  0  0
    8.7975   14.3697   22.2646 C   0  0  0  0  0  0  0  0  0  0  0  0
    9.3383   11.1470   23.9880 C   0  0  0  0  0  0  0  0  0  0  0  0
    8.6819   10.2375   24.8040 C   0  0  0  0  0  0  0  0  0  0  0  0
    7.5420   10.5174   25.4656 N   0  0  0  0  0  0  0  0  0  0  0  0
  1  2  2  0
  2  3  1  0
  3  4  1  0
  4  5  1  0
  5  6  1  0
  6  7  1  0
  7  8  1  0
  8  9  1  0
  3 10  2  0
 10 11  1  0
 11 12  2  0
 12  1  1  0
  9  4  1  0
M  END
>  <inchikey>  (120) 
UPVSFXPIZJMBGP-UHFFFAOYSA-N

>  <energy_score>  (120) 
-17.06012

>  <subsites>  (120) 
1 - Active Site

>  <alias>  (120) 
C727-P440

>  <tags>  (120) 
openbind_a71ev2a_c1_scaffolds,BulkDock Fragalysis export,openbind_a71ev2a_c1_knitwork_impure,fragmenstein_placed

>  <distance_score>  (120) 
0.948656

>  <placement_batch>  (120) 
openbind_a71ev2a_c1_knitwork_impure

>  <name>  (120) 
C727-P440

>  <ref_mols>  (120) 
A4707a,A3623a

>  <smiles>  (120) 
c1cc(N2CCCCC2)ccn1

>  <HIPPO Compound ID>  (120) 
21091

>  <HIPPO Pose ID>  (120) 
361728

>  <ref_pdb>  (120) 
A4029a

$$$$
C7135-P444
     RDKit          3D

 22 23  0  0  0  0  0  0  0  0999 V2000
    3.8849   12.1391   29.9308 C   0  0  0  0  0  0  0  0  0  0  0  0
    3.3514   10.9532   29.1222 C   0  0  2  0  0  0  0  0  0  0  0  0
    3.5797   11.2119   27.6142 C   0  0  0  0  0  0  0  0  0  0  0  0
    5.0131   10.8625   27.1923 C   0  0  0  0  0  0  0  0  0  0  0  0
    5.6042    9.9917   27.7017 O   0  0  0  0  0  0  0  0  0  0  0  0
    5.3979   11.7749   25.9866 N   0  0  0  0  0  0  0  0  0  0  0  0
    6.5852   11.8569   25.2543 C   0  0  0  0  0  0  0  0  0  0  0  0
    7.4089   10.7494   25.1279 C   0  0  0  0  0  0  0  0  0  0  0  0
    8.5619   10.8895   24.3776 C   0  0  0  0  0  0  0  0  0  0  0  0
    8.9600   12.0525   23.8079 N   0  0  0  0  0  0  0  0  0  0  0  0
    8.1765   13.1343   23.9566 C   0  0  0  0  0  0  0  0  0  0  0  0
    8.6150   14.4023   23.5331 N   0  0  0  0  0  0  0  0  0  0  0  0
    9.6867   14.9188   24.4111 C   0  0  0  0  0  0  0  0  0  0  0  0
   11.1140   14.5422   23.9587 C   0  0  0  0  0  0  0  0  0  0  0  0
   11.3959   14.8956   22.5612 N   0  0  0  0  0  0  0  0  0  0  0  0
   10.4001   14.1898   21.7277 C   0  0  0  0  0  0  0  0  0  0  0  0
    8.9349   14.5296   22.0907 C   0  0  0  0  0  0  0  0  0  0  0  0
    6.9572   13.0524   24.6415 C   0  0  0  0  0  0  0  0  0  0  0  0
    1.8800   10.7242   29.4340 C   0  0  0  0  0  0  0  0  0  0  0  0
    1.6719   10.6026   30.7652 F   0  0  0  0  0  0  0  0  0  0  0  0
    1.4076    9.6067   28.8488 F   0  0  0  0  0  0  0  0  0  0  0  0
    1.1227   11.7591   29.0011 F   0  0  0  0  0  0  0  0  0  0  0  0
  2  1  1  1
  2  3  1  0
  3  4  1  0
  4  5  2  0
  4  6  1  0
  6  7  1  0
  7  8  2  0
  8  9  1  0
  9 10  2  0
 10 11  1  0
 11 12  1  0
 12 13  1  0
 13 14  1  0
 14 15  1  0
 15 16  1  0
 16 17  1  0
 11 18  2  0
  2 19  1  0
 19 20  1  0
 19 21  1  0
 19 22  1  0
 18  7  1  0
 17 12  1  0
M  END
>  <inchikey>  (121) 
GXLWWRPCSDKINQ-UHFFFAOYSA-N

>  <energy_score>  (121) 
-35.661837

>  <subsites>  (121) 
1 - Active Site

>  <alias>  (121) 
C7135-P444

>  <tags>  (121) 
openbind_a71ev2a_c1_scaffolds,BulkDock Fragalysis export,openbind_a71ev2a_c1_knitwork_impure,fragmenstein_placed

>  <distance_score>  (121) 
0.981657

>  <placement_batch>  (121) 
openbind_a71ev2a_c1_knitwork_impure

>  <name>  (121) 
C7135-P444

>  <ref_mols>  (121) 
A1445a,A4712a

>  <smiles>  (121) 
C[C@H](CC(=O)Nc1ccnc(N2CCNCC2)c1)C(F)(F)F

>  <HIPPO Compound ID>  (121) 
8920

>  <HIPPO Pose ID>  (121) 
361889

>  <ref_pdb>  (121) 
A4029a

$$$$
C18929-P134
     RDKit          3D

 14 15  0  0  0  0  0  0  0  0999 V2000
    6.9230   11.5838   26.0340 C   0  0  0  0  0  0  0  0  0  0  0  0
    8.1262   10.9344   25.4050 C   0  0  0  0  0  0  0  0  0  0  0  0
    8.3747    9.7386   25.5346 O   0  0  0  0  0  0  0  0  0  0  0  0
    9.1294   11.7988   24.7481 C   0  0  0  0  0  0  0  0  0  0  0  0
    8.7852   12.9241   23.9855 C   0  0  0  0  0  0  0  0  0  0  0  0
    9.7851   13.7495   23.4293 C   0  0  0  0  0  0  0  0  0  0  0  0
   11.1390   13.4947   23.6607 C   0  0  0  0  0  0  0  0  0  0  0  0
   11.4465   12.3983   24.4382 C   0  0  0  0  0  0  0  0  0  0  0  0
   10.4757   11.5316   24.9322 C   0  0  0  0  0  0  0  0  0  0  0  0
   11.0613   10.4339   25.5714 N   0  0  0  0  0  0  0  0  0  0  0  0
   12.4313   10.5037   25.5302 C   0  0  0  0  0  0  0  0  0  0  0  0
   13.2579    9.6884   25.8795 O   0  0  0  0  0  0  0  0  0  0  0  0
   12.7443   11.8447   24.8328 C   0  0  0  0  0  0  0  0  0  0  0  0
   13.8511   12.2521   24.5721 O   0  0  0  0  0  0  0  0  0  0  0  0
  1  2  1  0
  2  3  2  0
  2  4  1  0
  4  5  2  0
  5  6  1  0
  6  7  2  0
  7  8  1  0
  8  9  2  0
  9 10  1  0
 10 11  1  0
 11 12  2  0
 11 13  1  0
 13 14  2  0
  9  4  1  0
 13  8  1  0
M  END
>  <inchikey>  (122) 
MHSGZEFYVKSBLF-UHFFFAOYSA-N

>  <energy_score>  (122) 
-12.668235

>  <subsites>  (122) 
1 - Active Site

>  <alias>  (122) 
C18929-P134

>  <tags>  (122) 
openbind_a71ev2a_c1_scaffolds,BulkDock Fragalysis export,openbind_a71ev2a_c1_knitwork_impure,fragmenstein_placed

>  <distance_score>  (122) 
0.811671

>  <placement_batch>  (122) 
openbind_a71ev2a_c1_knitwork_impure

>  <name>  (122) 
C18929-P134

>  <ref_mols>  (122) 
A1775a,A2513a

>  <smiles>  (122) 
CC(=O)c1cccc2c1NC(=O)C2=O

>  <HIPPO Compound ID>  (122) 
4746

>  <HIPPO Pose ID>  (122) 
362822

>  <ref_pdb>  (122) 
A4029a

$$$$
C18936-P134
     RDKit          3D

 15 16  0  0  0  0  0  0  0  0999 V2000
    5.2640   12.2091   27.6418 C   0  0  0  0  0  0  0  0  0  0  0  0
    6.1948   11.3530   26.9927 O   0  0  0  0  0  0  0  0  0  0  0  0
    7.1035   12.0922   26.1804 C   0  0  0  0  0  0  0  0  0  0  0  0
    8.0264   11.1249   25.4275 C   0  0  0  0  0  0  0  0  0  0  0  0
    9.1395   11.8672   24.7356 C   0  0  0  0  0  0  0  0  0  0  0  0
    8.8571   12.9496   23.8754 C   0  0  0  0  0  0  0  0  0  0  0  0
    9.8780   13.7299   23.2959 C   0  0  0  0  0  0  0  0  0  0  0  0
   11.2163   13.4686   23.5736 C   0  0  0  0  0  0  0  0  0  0  0  0
   11.4769   12.4053   24.4097 C   0  0  0  0  0  0  0  0  0  0  0  0
   10.4781   11.5817   24.9369 C   0  0  0  0  0  0  0  0  0  0  0  0
   11.0369   10.4910   25.6069 N   0  0  0  0  0  0  0  0  0  0  0  0
   12.4109   10.5249   25.5476 C   0  0  0  0  0  0  0  0  0  0  0  0
   13.2159    9.6875   25.8974 O   0  0  0  0  0  0  0  0  0  0  0  0
   12.7591   11.8403   24.8295 C   0  0  0  0  0  0  0  0  0  0  0  0
   13.8782   12.2178   24.5749 O   0  0  0  0  0  0  0  0  0  0  0  0
  1  2  1  0
  2  3  1  0
  3  4  1  0
  4  5  1  0
  5  6  2  0
  6  7  1  0
  7  8  2  0
  8  9  1  0
  9 10  2  0
 10 11  1  0
 11 12  1  0
 12 13  2  0
 12 14  1  0
 14 15  2  0
 10  5  1  0
 14  9  1  0
M  END
>  <inchikey>  (123) 
ZUCKYOCXPYNNQW-UHFFFAOYSA-N

>  <energy_score>  (123) 
-20.14423

>  <subsites>  (123) 
1 - Active Site

>  <alias>  (123) 
C18936-P134

>  <tags>  (123) 
openbind_a71ev2a_c1_scaffolds,BulkDock Fragalysis export,openbind_a71ev2a_c1_knitwork_impure,fragmenstein_placed

>  <distance_score>  (123) 
0.807336

>  <placement_batch>  (123) 
openbind_a71ev2a_c1_knitwork_impure

>  <name>  (123) 
C18936-P134

>  <ref_mols>  (123) 
A1775a,A2513a

>  <smiles>  (123) 
COCCc1cccc2c1NC(=O)C2=O

>  <HIPPO Compound ID>  (123) 
20105

>  <HIPPO Pose ID>  (123) 
362832

>  <ref_pdb>  (123) 
A4029a

$$$$
C18941-P134
     RDKit          3D

 14 15  0  0  0  0  0  0  0  0999 V2000
    6.3296   12.0420   26.5685 C   0  0  0  0  0  0  0  0  0  0  0  0
    7.6562   11.5279   26.5943 O   0  0  0  0  0  0  0  0  0  0  0  0
    8.0256   10.9061   25.3649 C   0  0  0  0  0  0  0  0  0  0  0  0
    9.1069   11.7347   24.7390 C   0  0  0  0  0  0  0  0  0  0  0  0
    8.7757   12.8701   23.9715 C   0  0  0  0  0  0  0  0  0  0  0  0
    9.7648   13.7107   23.4215 C   0  0  0  0  0  0  0  0  0  0  0  0
   11.1158   13.4697   23.6603 C   0  0  0  0  0  0  0  0  0  0  0  0
   11.4214   12.3782   24.4440 C   0  0  0  0  0  0  0  0  0  0  0  0
   10.4552   11.4981   24.9393 C   0  0  0  0  0  0  0  0  0  0  0  0
   11.0554   10.4112   25.5790 N   0  0  0  0  0  0  0  0  0  0  0  0
   12.4261   10.5062   25.5399 C   0  0  0  0  0  0  0  0  0  0  0  0
   13.2577    9.6979   25.8956 O   0  0  0  0  0  0  0  0  0  0  0  0
   12.7258   11.8437   24.8385 C   0  0  0  0  0  0  0  0  0  0  0  0
   13.8306   12.2532   24.5710 O   0  0  0  0  0  0  0  0  0  0  0  0
  1  2  1  0
  2  3  1  0
  3  4  1  0
  4  5  2  0
  5  6  1  0
  6  7  2  0
  7  8  1  0
  8  9  2  0
  9 10  1  0
 10 11  1  0
 11 12  2  0
 11 13  1  0
 13 14  2  0
  9  4  1  0
 13  8  1  0
M  END
>  <inchikey>  (124) 
GHTQJYVHMYLSOL-UHFFFAOYSA-N

>  <energy_score>  (124) 
-14.902326

>  <subsites>  (124) 
1 - Active Site

>  <alias>  (124) 
C18941-P134

>  <tags>  (124) 
openbind_a71ev2a_c1_scaffolds,BulkDock Fragalysis export,openbind_a71ev2a_c1_knitwork_impure,fragmenstein_placed

>  <distance_score>  (124) 
0.637537

>  <placement_batch>  (124) 
openbind_a71ev2a_c1_knitwork_impure

>  <name>  (124) 
C18941-P134

>  <ref_mols>  (124) 
A1775a,A2513a

>  <smiles>  (124) 
COCc1cccc2c1NC(=O)C2=O

>  <HIPPO Compound ID>  (124) 
18941

>  <HIPPO Pose ID>  (124) 
362842

>  <ref_pdb>  (124) 
A4029a

$$$$
C8140-P439
     RDKit          3D

 16 16  0  0  0  0  0  0  0  0999 V2000
    6.4964   15.4368   24.6758 C   0  0  0  0  0  0  0  0  0  0  0  0
    6.4751   14.0179   25.2439 C   0  0  1  0  0  0  0  0  0  0  0  0
    7.7317   13.2829   24.9116 N   0  0  0  0  0  0  0  0  0  0  0  0
    8.2094   13.1448   23.3119 S   0  0  0  0  0  0  0  0  0  0  0  0
    7.0112   13.0560   22.5116 O   0  0  0  0  0  0  0  0  0  0  0  0
    9.1749   12.0735   23.3120 O   0  0  0  0  0  0  0  0  0  0  0  0
    8.9781   14.6033   23.1008 N   0  0  0  0  0  0  0  0  0  0  0  0
   10.3005   14.7640   23.7294 C   0  0  0  0  0  0  0  0  0  0  0  0
   11.4188   14.3795   22.7742 C   0  0  0  0  0  0  0  0  0  0  0  0
   11.3170   15.1600   21.4708 C   0  0  0  0  0  0  0  0  0  0  0  0
    9.9450   14.9604   20.8408 C   0  0  0  0  0  0  0  0  0  0  0  0
    8.8297   15.3160   21.8086 C   0  0  0  0  0  0  0  0  0  0  0  0
    6.2557   13.9709   26.8028 C   0  0  0  0  0  0  0  0  0  0  0  0
    6.0930   12.5074   27.2775 C   0  0  0  0  0  0  0  0  0  0  0  0
    4.9539   14.7069   27.1924 C   0  0  0  0  0  0  0  0  0  0  0  0
    7.4231   14.6226   27.5681 C   0  0  0  0  0  0  0  0  0  0  0  0
  2  1  1  1
  2  3  1  0
  3  4  1  0
  4  5  2  0
  4  6  2  0
  4  7  1  0
  7  8  1  0
  8  9  1  0
  9 10  1  0
 10 11  1  0
 11 12  1  0
  2 13  1  0
 13 14  1  0
 13 15  1  0
 13 16  1  0
 12  7  1  0
M  END
>  <inchikey>  (125) 
IWXAZUGAFBIABQ-UHFFFAOYSA-N

>  <energy_score>  (125) 
-71.882004

>  <subsites>  (125) 
1 - Active Site

>  <alias>  (125) 
C8140-P439

>  <tags>  (125) 
openbind_a71ev2a_c1_scaffolds,BulkDock Fragalysis export,openbind_a71ev2a_c1_knitwork_impure,fragmenstein_placed

>  <distance_score>  (125) 
0.944903

>  <placement_batch>  (125) 
openbind_a71ev2a_c1_knitwork_impure

>  <name>  (125) 
C8140-P439

>  <ref_mols>  (125) 
A0719a,A4706a

>  <smiles>  (125) 
C[C@@H](NS(=O)(=O)N1CCCCC1)C(C)(C)C

>  <HIPPO Compound ID>  (125) 
18492

>  <HIPPO Pose ID>  (125) 
363286

>  <ref_pdb>  (125) 
A4029a

$$$$
C8160-P439
     RDKit          3D

 14 14  0  0  0  0  0  0  0  0999 V2000
    7.6491   10.0785   25.5966 C   0  0  0  0  0  0  0  0  0  0  0  0
    8.1979   11.2152   24.7925 C   0  0  0  0  0  0  0  0  0  0  0  0
    9.7181   11.1821   24.8074 C   0  0  0  0  0  0  0  0  0  0  0  0
    7.5680   12.4652   25.3844 C   0  0  0  0  0  0  0  0  0  0  0  0
    8.1489   13.6639   24.8237 N   0  0  0  0  0  0  0  0  0  0  0  0
    7.6058   14.1719   23.3315 S   0  0  0  0  0  0  0  0  0  0  0  0
    6.8780   13.1209   22.6607 O   0  0  0  0  0  0  0  0  0  0  0  0
    7.0198   15.4551   23.6199 O   0  0  0  0  0  0  0  0  0  0  0  0
    9.0721   14.3821   22.5492 N   0  0  0  0  0  0  0  0  0  0  0  0
   10.2396   14.8094   23.3444 C   0  0  0  0  0  0  0  0  0  0  0  0
   11.4982   14.5689   22.5312 C   0  0  0  0  0  0  0  0  0  0  0  0
   11.4607   15.4126   21.2723 C   0  0  0  0  0  0  0  0  0  0  0  0
   10.2091   15.1123   20.4601 C   0  0  0  0  0  0  0  0  0  0  0  0
    8.9407   15.1895   21.3001 C   0  0  0  0  0  0  0  0  0  0  0  0
  1  2  1  0
  2  3  1  0
  2  4  1  0
  4  5  1  0
  5  6  1  0
  6  7  2  0
  6  8  2  0
  6  9  1  0
  9 10  1  0
 10 11  1  0
 11 12  1  0
 12 13  1  0
 13 14  1  0
 14  9  1  0
M  END
>  <inchikey>  (126) 
MIJXJNKYRJUUNZ-UHFFFAOYSA-N

>  <energy_score>  (126) 
-47.056266

>  <subsites>  (126) 
1 - Active Site

>  <alias>  (126) 
C8160-P439

>  <tags>  (126) 
openbind_a71ev2a_c1_scaffolds,BulkDock Fragalysis export,openbind_a71ev2a_c1_knitwork_impure,fragmenstein_placed

>  <distance_score>  (126) 
0.842827

>  <placement_batch>  (126) 
openbind_a71ev2a_c1_knitwork_impure

>  <name>  (126) 
C8160-P439

>  <ref_mols>  (126) 
A0719a,A4706a

>  <smiles>  (126) 
CC(C)CNS(=O)(=O)N1CCCCC1

>  <HIPPO Compound ID>  (126) 
5654

>  <HIPPO Pose ID>  (126) 
363295

>  <ref_pdb>  (126) 
A4029a

$$$$
C8169-P439
     RDKit          3D

 14 14  0  0  0  0  0  0  0  0999 V2000
    6.7210   13.1212   22.4319 O   0  0  0  0  0  0  0  0  0  0  0  0
    7.4882   13.9272   23.3527 S   0  0  0  0  0  0  0  0  0  0  0  0
    6.9970   15.1655   23.9007 O   0  0  0  0  0  0  0  0  0  0  0  0
    7.8684   12.9927   24.6978 N   0  0  0  0  0  0  0  0  0  0  0  0
    6.9182   11.9026   24.9708 C   0  0  0  0  0  0  0  0  0  0  0  0
    6.8751   11.5392   26.4450 C   0  0  0  0  0  0  0  0  0  0  0  0
    6.0433   12.5043   27.2833 C   0  0  0  0  0  0  0  0  0  0  0  0
    6.8165   14.0981   27.4229 Cl  0  0  0  0  0  0  0  0  0  0  0  0
    8.9953   14.1875   22.6726 N   0  0  0  0  0  0  0  0  0  0  0  0
   10.0997   14.5714   23.5709 C   0  0  0  0  0  0  0  0  0  0  0  0
   11.4128   14.4530   22.8085 C   0  0  0  0  0  0  0  0  0  0  0  0
   11.4212   15.3889   21.6088 C   0  0  0  0  0  0  0  0  0  0  0  0
   10.2272   15.1050   20.7086 C   0  0  0  0  0  0  0  0  0  0  0  0
    8.9181   15.1027   21.4864 C   0  0  0  0  0  0  0  0  0  0  0  0
  1  2  2  0
  2  3  2  0
  2  4  1  0
  4  5  1  0
  5  6  1  0
  6  7  1  0
  7  8  1  0
  2  9  1  0
  9 10  1  0
 10 11  1  0
 11 12  1  0
 12 13  1  0
 13 14  1  0
 14  9  1  0
M  END
>  <inchikey>  (127) 
OBYODZPHMWOBDT-UHFFFAOYSA-N

>  <energy_score>  (127) 
-66.788676

>  <subsites>  (127) 
1 - Active Site

>  <alias>  (127) 
C8169-P439

>  <tags>  (127) 
openbind_a71ev2a_c1_scaffolds,BulkDock Fragalysis export,openbind_a71ev2a_c1_knitwork_impure,fragmenstein_placed

>  <distance_score>  (127) 
0.546281

>  <placement_batch>  (127) 
openbind_a71ev2a_c1_knitwork_impure

>  <name>  (127) 
C8169-P439

>  <ref_mols>  (127) 
A0719a,A4706a

>  <smiles>  (127) 
O=S(=O)(NCCCCl)N1CCCCC1

>  <HIPPO Compound ID>  (127) 
22202

>  <HIPPO Pose ID>  (127) 
363296

>  <ref_pdb>  (127) 
A4029a

$$$$
C6268-P242
     RDKit          3D

 12 13  0  0  0  0  0  0  0  0999 V2000
   10.3123   15.2043   20.7622 C   0  0  0  0  0  0  0  0  0  0  0  0
   11.4442   15.1018   21.5561 C   0  0  0  0  0  0  0  0  0  0  0  0
   11.3252   14.5708   22.8336 C   0  0  0  0  0  0  0  0  0  0  0  0
   10.0743   14.1258   23.2740 C   0  0  0  0  0  0  0  0  0  0  0  0
    9.9562   13.3863   24.5894 C   0  0  1  0  0  0  0  0  0  0  0  0
    8.5035   13.1341   25.0909 C   0  0  0  0  0  0  0  0  0  0  0  0
    8.2945   11.8115   25.7254 N   0  0  0  0  0  0  0  0  0  0  0  0
    8.3318   10.7754   24.6980 C   0  0  0  0  0  0  0  0  0  0  0  0
    9.5916   10.7431   23.8309 C   0  0  0  0  0  0  0  0  0  0  0  0
   10.9158   11.8122   24.4819 S   0  0  0  0  0  0  0  0  0  0  0  0
    8.9638   14.2326   22.5117 N   0  0  0  0  0  0  0  0  0  0  0  0
    9.1061   14.7858   21.2903 C   0  0  0  0  0  0  0  0  0  0  0  0
  1  2  2  0
  2  3  1  0
  3  4  2  0
  5  4  1  6
  5  6  1  0
  6  7  1  0
  7  8  1  0
  8  9  1  0
  9 10  1  0
  4 11  1  0
 11 12  2  0
 12  1  1  0
 10  5  1  0
M  END
>  <inchikey>  (128) 
YFEHDHGTUJUJKX-UHFFFAOYSA-N

>  <energy_score>  (128) 
-19.460199

>  <subsites>  (128) 
1 - Active Site

>  <alias>  (128) 
C6268-P242

>  <tags>  (128) 
openbind_a71ev2a_c1_scaffolds,BulkDock Fragalysis export,openbind_a71ev2a_c1_knitwork_impure,fragmenstein_placed

>  <distance_score>  (128) 
0.966357

>  <placement_batch>  (128) 
openbind_a71ev2a_c1_knitwork_impure

>  <name>  (128) 
C6268-P242

>  <ref_mols>  (128) 
A3938a,A2629a

>  <smiles>  (128) 
c1ccc([C@H]2CNCCS2)nc1

>  <HIPPO Compound ID>  (128) 
6268

>  <HIPPO Pose ID>  (128) 
363318

>  <ref_pdb>  (128) 
A4029a

$$$$
C1800-P198
     RDKit          3D

 16 18  0  0  0  0  0  0  0  0999 V2000
    8.8222   12.6120   23.4373 C   0  0  0  0  0  0  0  0  0  0  0  0
    8.2496   11.5146   23.9917 N   0  0  0  0  0  0  0  0  0  0  0  0
    7.2043   11.6960   24.8370 C   0  0  0  0  0  0  0  0  0  0  0  0
    6.6921   12.9574   25.1170 C   0  0  0  0  0  0  0  0  0  0  0  0
    7.3248   14.0638   24.5455 C   0  0  0  0  0  0  0  0  0  0  0  0
    8.4274   13.9111   23.7000 C   0  0  0  0  0  0  0  0  0  0  0  0
    9.1766   15.1429   23.2354 C   0  0  0  0  0  0  0  0  0  0  0  0
   10.5955   15.1968   23.8279 C   0  0  0  0  0  0  0  0  0  0  0  0
   11.6730   14.6310   22.9155 C   0  0  0  0  0  0  0  0  0  0  0  0
   11.5861   15.2532   21.6064 N   0  0  0  0  0  0  0  0  0  0  0  0
   10.3320   14.8904   20.9549 C   0  0  0  0  0  0  0  0  0  0  0  0
    9.1308   15.4218   21.7258 C   0  0  0  0  0  0  0  0  0  0  0  0
    5.5495   13.1673   26.0686 C   0  0  0  0  0  0  0  0  0  0  0  0
    4.7254   11.9079   26.3027 C   0  0  0  0  0  0  0  0  0  0  0  0
    5.6253   10.7218   26.5976 C   0  0  0  0  0  0  0  0  0  0  0  0
    6.5916   10.4623   25.4457 C   0  0  0  0  0  0  0  0  0  0  0  0
  1  2  2  0
  2  3  1  0
  3  4  2  0
  4  5  1  0
  5  6  2  0
  6  7  1  0
  7  8  1  0
  8  9  1  0
  9 10  1  0
 10 11  1  0
 11 12  1  0
  4 13  1  0
 13 14  1  0
 14 15  1  0
 15 16  1  0
  6  1  1  0
 12  7  1  0
 16  3  1  0
M  END
>  <inchikey>  (129) 
ILKJWDJJINULLS-UHFFFAOYSA-N

>  <energy_score>  (129) 
-22.641013

>  <subsites>  (129) 
1 - Active Site

>  <alias>  (129) 
C1800-P198

>  <tags>  (129) 
openbind_a71ev2a_c1_scaffolds,BulkDock Fragalysis export,openbind_a71ev2a_c1_knitwork_impure,fragmenstein_placed

>  <distance_score>  (129) 
0.888434

>  <placement_batch>  (129) 
openbind_a71ev2a_c1_knitwork_impure

>  <name>  (129) 
C1800-P198

>  <ref_mols>  (129) 
A0556a,A3618a

>  <smiles>  (129) 
c1nc2c(cc1C1CCNCC1)CCCC2

>  <HIPPO Compound ID>  (129) 
129989

>  <HIPPO Pose ID>  (129) 
363680

>  <ref_pdb>  (129) 
A4029a

$$$$
C2384-P313
     RDKit          3D

 15 15  0  0  0  0  0  0  0  0999 V2000
   12.1277   15.5723   22.5963 C   0  0  0  0  0  0  0  0  0  0  0  0
   10.7087   15.9292   23.0061 C   0  0  0  0  0  0  0  0  0  0  0  0
    9.7243   15.0291   22.2556 C   0  0  2  0  0  0  0  0  0  0  0  0
    9.1425   15.8090   21.0773 C   0  0  0  0  0  0  0  0  0  0  0  0
    8.6173   14.3997   23.1017 C   0  0  0  0  0  0  0  0  0  0  0  0
    7.4552   14.4100   22.6791 O   0  0  0  0  0  0  0  0  0  0  0  0
    8.9335   13.6538   24.4280 C   0  0  0  0  0  0  0  0  0  0  0  0
   10.4176   13.2624   24.5602 C   0  0  0  0  0  0  0  0  0  0  0  0
    8.5919   14.6319   25.5831 C   0  0  0  0  0  0  0  0  0  0  0  0
    8.0112   12.3559   24.4258 C   0  0  2  0  0  0  0  0  0  0  0  0
    7.2496   12.1566   25.7445 C   0  0  0  0  0  0  0  0  0  0  0  0
    6.5582   10.8068   25.8843 C   0  0  0  0  0  0  0  0  0  0  0  0
    7.2688    9.6843   25.1509 C   0  0  0  0  0  0  0  0  0  0  0  0
    8.6623    9.9682   24.8587 N   0  0  0  0  0  0  0  0  0  0  0  0
    8.7194   11.0739   23.9210 C   0  0  0  0  0  0  0  0  0  0  0  0
  1  2  1  0
  2  3  1  0
  3  4  1  6
  3  5  1  0
  5  6  2  0
  5  7  1  0
  7  8  1  0
  7  9  1  0
 10  7  1  1
 10 11  1  0
 11 12  1  0
 12 13  1  0
 13 14  1  0
 14 15  1  0
 15 10  1  0
M  END
>  <inchikey>  (130) 
LAVULZBUGIJAIW-UHFFFAOYSA-N

>  <energy_score>  (130) 
-29.485901

>  <subsites>  (130) 
1 - Active Site

>  <alias>  (130) 
C2384-P313

>  <tags>  (130) 
openbind_a71ev2a_c1_scaffolds,BulkDock Fragalysis export,openbind_a71ev2a_c1_knitwork_impure,fragmenstein_placed

>  <distance_score>  (130) 
0.931081

>  <placement_batch>  (130) 
openbind_a71ev2a_c1_knitwork_impure

>  <name>  (130) 
C2384-P313

>  <ref_mols>  (130) 
A4336a,A1779a

>  <smiles>  (130) 
CC[C@H](C)C(=O)C(C)(C)[C@@H]1CCCNC1

>  <HIPPO Compound ID>  (130) 
10831

>  <HIPPO Pose ID>  (130) 
363807

>  <ref_pdb>  (130) 
A4029a

$$$$
C7137-P304
     RDKit          3D

 19 20  0  0  0  0  0  0  0  0999 V2000
    3.3486   12.3433   30.6991 C   0  0  0  0  0  0  0  0  0  0  0  0
    3.0870   11.2930   29.6229 C   0  0  2  0  0  0  0  0  0  0  0  0
    3.3739   11.9075   28.2387 C   0  0  0  0  0  0  0  0  0  0  0  0
    4.6071   11.2774   27.6104 C   0  0  0  0  0  0  0  0  0  0  0  0
    4.9724   10.2047   27.8886 O   0  0  0  0  0  0  0  0  0  0  0  0
    5.1707   12.2966   26.5880 N   0  0  0  0  0  0  0  0  0  0  0  0
    6.1747   12.1761   25.6913 C   0  0  0  0  0  0  0  0  0  0  0  0
    6.6516   13.1713   24.9870 N   0  0  0  0  0  0  0  0  0  0  0  0
    7.6820   12.7075   24.1902 C   0  0  0  0  0  0  0  0  0  0  0  0
    7.9476   11.3644   24.3134 C   0  0  0  0  0  0  0  0  0  0  0  0
    9.1805   10.6598   23.6770 C   0  0  0  0  0  0  0  0  0  0  0  0
    9.1211    9.1475   23.3911 C   0  0  0  0  0  0  0  0  0  0  0  0
   10.3139    8.9495   24.2371 N   0  0  0  0  0  0  0  0  0  0  0  0
   10.1534   10.2869   24.7928 C   0  0  0  0  0  0  0  0  0  0  0  0
    6.8854   10.6546   25.4400 S   0  0  0  0  0  0  0  0  0  0  0  0
    1.6616   10.7789   29.6940 C   0  0  0  0  0  0  0  0  0  0  0  0
    1.3738   10.3037   30.9226 F   0  0  0  0  0  0  0  0  0  0  0  0
    1.4638    9.7800   28.8034 F   0  0  0  0  0  0  0  0  0  0  0  0
    0.7868   11.7635   29.4065 F   0  0  0  0  0  0  0  0  0  0  0  0
  2  1  1  1
  2  3  1  0
  3  4  1  0
  4  5  2  0
  4  6  1  0
  6  7  1  0
  7  8  2  0
  8  9  1  0
  9 10  2  0
 10 11  1  0
 11 12  1  0
 12 13  1  0
 13 14  1  0
 10 15  1  0
  2 16  1  0
 16 17  1  0
 16 18  1  0
 16 19  1  0
 15  7  1  0
 14 11  1  0
M  END
>  <inchikey>  (131) 
QEVCNVOOKXMKLD-UHFFFAOYSA-N

>  <energy_score>  (131) 
-36.600401

>  <subsites>  (131) 
1 - Active Site

>  <alias>  (131) 
C7137-P304

>  <tags>  (131) 
openbind_a71ev2a_c1_scaffolds,BulkDock Fragalysis export,openbind_a71ev2a_c1_knitwork_impure,fragmenstein_placed

>  <distance_score>  (131) 
0.978401

>  <placement_batch>  (131) 
openbind_a71ev2a_c1_knitwork_impure

>  <name>  (131) 
C7137-P304

>  <ref_mols>  (131) 
A1445a,A4321a

>  <smiles>  (131) 
C[C@H](CC(=O)Nc1ncc(C2CNC2)s1)C(F)(F)F

>  <HIPPO Compound ID>  (131) 
8973

>  <HIPPO Pose ID>  (131) 
364096

>  <ref_pdb>  (131) 
A1445a

$$$$
C7139-P304
     RDKit          3D

 21 22  0  0  0  0  0  0  0  0999 V2000
    3.5230   11.6928   30.8738 C   0  0  0  0  0  0  0  0  0  0  0  0
    2.9988   10.4690   30.1212 C   0  0  2  0  0  0  0  0  0  0  0  0
    3.8641   10.0265   28.9395 C   0  0  0  0  0  0  0  0  0  0  0  0
    4.3941   11.1377   28.0423 C   0  0  0  0  0  0  0  0  0  0  0  0
    4.2080   12.2736   28.2158 O   0  0  0  0  0  0  0  0  0  0  0  0
    5.2662   10.4142   26.9882 N   0  0  0  0  0  0  0  0  0  0  0  0
    6.1081   10.9129   26.0524 C   0  0  0  0  0  0  0  0  0  0  0  0
    6.9805   10.2915   25.2034 C   0  0  0  0  0  0  0  0  0  0  0  0
    7.6672   11.3494   24.5614 C   0  0  0  0  0  0  0  0  0  0  0  0
    8.7406   11.3094   23.5142 C   0  0  0  0  0  0  0  0  0  0  0  0
    9.2169    9.9023   23.1451 C   0  0  0  0  0  0  0  0  0  0  0  0
   10.0407    9.2776   24.2461 C   0  0  0  0  0  0  0  0  0  0  0  0
   11.0718   10.1487   24.8149 N   0  0  0  0  0  0  0  0  0  0  0  0
   10.6446   11.5380   25.0484 C   0  0  0  0  0  0  0  0  0  0  0  0
    9.9451   12.1718   23.8700 C   0  0  0  0  0  0  0  0  0  0  0  0
    7.2376   12.5455   24.9845 N   0  0  0  0  0  0  0  0  0  0  0  0
    6.2415   12.2531   25.8313 N   0  0  0  0  0  0  0  0  0  0  0  0
    1.5510   10.6531   29.7152 C   0  0  0  0  0  0  0  0  0  0  0  0
    0.7892   10.8811   30.8044 F   0  0  0  0  0  0  0  0  0  0  0  0
    1.0932    9.5264   29.1186 F   0  0  0  0  0  0  0  0  0  0  0  0
    1.3812   11.6648   28.8477 F   0  0  0  0  0  0  0  0  0  0  0  0
  2  1  1  6
  2  3  1  0
  3  4  1  0
  4  5  2  0
  4  6  1  0
  6  7  1  0
  7  8  2  0
  8  9  1  0
  9 10  1  0
 10 11  1  0
 11 12  1  0
 12 13  1  0
 13 14  1  0
 14 15  1  0
  9 16  2  0
 16 17  1  0
  2 18  1  0
 18 19  1  0
 18 20  1  0
 18 21  1  0
 17  7  1  0
 15 10  1  0
M  END
>  <inchikey>  (132) 
QWJIGENMFCZKMW-UHFFFAOYSA-N

>  <energy_score>  (132) 
-8.163543

>  <subsites>  (132) 
1 - Active Site

>  <alias>  (132) 
C7139-P304

>  <tags>  (132) 
openbind_a71ev2a_c1_scaffolds,BulkDock Fragalysis export,openbind_a71ev2a_c1_knitwork_impure,fragmenstein_placed

>  <distance_score>  (132) 
0.939405

>  <placement_batch>  (132) 
openbind_a71ev2a_c1_knitwork_impure

>  <name>  (132) 
C7139-P304

>  <ref_mols>  (132) 
A1445a,A4321a

>  <smiles>  (132) 
C[C@H](CC(=O)Nc1cc(C2CCNCC2)n[nH]1)C(F)(F)F

>  <HIPPO Compound ID>  (132) 
85352

>  <HIPPO Pose ID>  (132) 
364098

>  <ref_pdb>  (132) 
A1445a

$$$$
C4728-P204
     RDKit          3D

  9  9  0  0  0  0  0  0  0  0999 V2000
    7.3411   11.4818   25.7392 O   0  0  0  0  0  0  0  0  0  0  0  0
    7.0470   12.4790   25.0826 C   0  0  0  0  0  0  0  0  0  0  0  0
    7.8786   12.9758   23.9347 C   0  0  0  0  0  0  0  0  0  0  0  0
    9.0274   13.8417   24.4428 C   0  0  0  0  0  0  0  0  0  0  0  0
   10.0781   13.9292   23.4454 N   0  0  0  0  0  0  0  0  0  0  0  0
   11.3649   14.4442   23.9166 C   0  0  0  0  0  0  0  0  0  0  0  0
   11.9782   15.0205   22.6905 C   0  0  0  0  0  0  0  0  0  0  0  0
   11.0643   15.1303   21.7235 C   0  0  0  0  0  0  0  0  0  0  0  0
    9.7458   14.6358   22.2010 C   0  0  0  0  0  0  0  0  0  0  0  0
  1  2  2  0
  2  3  1  0
  3  4  1  0
  4  5  1  0
  5  6  1  0
  6  7  1  0
  7  8  2  0
  8  9  1  0
  9  5  1  0
M  END
>  <inchikey>  (133) 
UTSSZZOTMTVFDK-UHFFFAOYSA-N

>  <energy_score>  (133) 
-9.615131

>  <subsites>  (133) 
1 - Active Site

>  <alias>  (133) 
C4728-P204

>  <tags>  (133) 
openbind_a71ev2a_c1_scaffolds,BulkDock Fragalysis export,openbind_a71ev2a_c1_knitwork_impure,fragmenstein_placed

>  <distance_score>  (133) 
0.620835

>  <placement_batch>  (133) 
openbind_a71ev2a_c1_knitwork_impure

>  <name>  (133) 
C4728-P204

>  <ref_mols>  (133) 
A1775a,A3685a

>  <smiles>  (133) 
O=CCCN1CC=CC1

>  <HIPPO Compound ID>  (133) 
94799

>  <HIPPO Pose ID>  (133) 
364287

>  <ref_pdb>  (133) 
A1445a

$$$$
C7479-P192
     RDKit          3D

 23 24  0  0  0  0  0  0  0  0999 V2000
    3.3669   12.3699   18.2300 C   0  0  0  0  0  0  0  0  0  0  0  0
    3.2708   12.6207   19.7342 C   0  0  0  0  0  0  0  0  0  0  0  0
    2.2136   11.7127   20.3606 C   0  0  0  0  0  0  0  0  0  0  0  0
    2.9870   14.0428   20.0301 C   0  0  0  0  0  0  0  0  0  0  0  0
    2.0455   14.6385   19.2401 O   0  0  0  0  0  0  0  0  0  0  0  0
    2.0091   15.9162   19.6740 C   0  0  0  0  0  0  0  0  0  0  0  0
    2.8195   16.1927   20.6725 N   0  0  0  0  0  0  0  0  0  0  0  0
    3.4222   14.9778   20.9542 C   0  0  0  0  0  0  0  0  0  0  0  0
    4.3522   14.8280   22.1180 C   0  0  0  0  0  0  0  0  0  0  0  0
    5.6159   15.4778   21.7950 N   0  0  0  0  0  0  0  0  0  0  0  0
    7.0326   14.6932   22.2153 S   0  0  0  0  0  0  0  0  0  0  0  0
    6.7936   13.3285   21.7668 O   0  0  0  0  0  0  0  0  0  0  0  0
    8.0073   15.4206   21.4277 O   0  0  0  0  0  0  0  0  0  0  0  0
    6.9809   14.9305   23.7298 N   0  0  0  0  0  0  0  0  0  0  0  0
    8.3275   14.6385   24.4158 S   0  0  2  0  0  0  0  0  0  0  0  0
    8.1571   15.2612   26.0775 C   0  0  0  0  0  0  0  0  0  0  0  0
    9.6059   15.1416   23.9573 O   0  0  0  0  0  0  0  0  0  0  0  0
    8.5572   12.8745   24.7232 C   0  0  0  0  0  0  0  0  0  0  0  0
    9.3239   12.2005   23.5843 C   0  0  0  0  0  0  0  0  0  0  0  0
    9.4874   10.6946   23.7426 C   0  0  0  0  0  0  0  0  0  0  0  0
    8.2713    9.9706   24.2774 C   0  0  0  0  0  0  0  0  0  0  0  0
    7.4839   10.6972   25.3502 C   0  0  0  0  0  0  0  0  0  0  0  0
    7.2476   12.1606   25.0277 C   0  0  0  0  0  0  0  0  0  0  0  0
  1  2  1  0
  2  3  1  0
  2  4  1  0
  4  5  1  0
  5  6  1  0
  6  7  2  0
  7  8  1  0
  8  9  1  0
  9 10  1  0
 10 11  1  0
 11 12  2  0
 11 13  2  0
 11 14  1  0
 14 15  2  0
 15 16  1  1
 15 17  2  0
 15 18  1  0
 18 19  1  0
 19 20  1  0
 20 21  1  0
 21 22  1  0
 22 23  1  0
  8  4  2  0
 23 18  1  0
M  END
>  <inchikey>  (134) 
IZSCHRLXBICVLQ-UHFFFAOYSA-N

>  <energy_score>  (134) 
-241.901724

>  <subsites>  (134) 
1 - Active Site

>  <alias>  (134) 
C7479-P192

>  <tags>  (134) 
openbind_a71ev2a_c1_scaffolds,BulkDock Fragalysis export,openbind_a71ev2a_c1_knitwork_impure,fragmenstein_placed

>  <distance_score>  (134) 
0.956125

>  <placement_batch>  (134) 
openbind_a71ev2a_c1_knitwork_impure

>  <name>  (134) 
C7479-P192

>  <ref_mols>  (134) 
A3623a,A3510a

>  <smiles>  (134) 
CC(C)c1ocnc1CNS(=O)(=O)N=[S@](C)(=O)C1CCCCC1

>  <HIPPO Compound ID>  (134) 
13838

>  <HIPPO Pose ID>  (134) 
364656

>  <ref_pdb>  (134) 
A1445a

$$$$
C6056-P493
     RDKit          3D

 15 17  0  0  0  0  0  0  0  0999 V2000
    9.7105   10.8267   23.4864 C   0  0  0  0  0  0  0  0  0  0  0  0
    8.8386   10.6719   24.5554 C   0  0  0  0  0  0  0  0  0  0  0  0
    8.3820   11.8170   25.1658 C   0  0  0  0  0  0  0  0  0  0  0  0
    8.8092   13.0808   24.7479 C   0  0  0  0  0  0  0  0  0  0  0  0
    9.6234   13.2788   23.6478 C   0  0  0  0  0  0  0  0  0  0  0  0
    9.8854   14.5687   23.2174 N   0  0  0  0  0  0  0  0  0  0  0  0
   10.9658   15.2561   23.9376 C   0  0  0  0  0  0  0  0  0  0  0  0
   12.2947   15.1057   23.1819 C   0  0  0  0  0  0  0  0  0  0  0  0
   12.2266   15.6988   21.8410 N   0  0  0  0  0  0  0  0  0  0  0  0
   11.1832   14.9889   21.0745 C   0  0  0  0  0  0  0  0  0  0  0  0
    9.8066   14.9221   21.7790 C   0  0  0  0  0  0  0  0  0  0  0  0
   10.0925   12.1154   23.0456 C   0  0  0  0  0  0  0  0  0  0  0  0
    8.2139   14.1138   25.6362 C   0  0  0  0  0  0  0  0  0  0  0  0
    7.0953   13.2914   26.2802 C   0  0  0  0  0  0  0  0  0  0  0  0
    7.4898   11.8633   26.2714 N   0  0  0  0  0  0  0  0  0  0  0  0
  1  2  2  0
  2  3  1  0
  3  4  2  0
  4  5  1  0
  5  6  1  0
  6  7  1  0
  7  8  1  0
  8  9  1  0
  9 10  1  0
 10 11  1  0
  5 12  2  0
  4 13  1  0
 13 14  1  0
 14 15  1  0
 12  1  1  0
 15  3  1  0
 11  6  1  0
M  END
>  <inchikey>  (135) 
RQFZEASXPNBDLI-UHFFFAOYSA-N

>  <energy_score>  (135) 
-30.470151

>  <subsites>  (135) 
1 - Active Site

>  <alias>  (135) 
C6056-P493

>  <tags>  (135) 
openbind_a71ev2a_c1_scaffolds,BulkDock Fragalysis export,openbind_a71ev2a_c1_knitwork_impure,fragmenstein_placed

>  <distance_score>  (135) 
0.961863

>  <placement_batch>  (135) 
openbind_a71ev2a_c1_knitwork_impure

>  <name>  (135) 
C6056-P493

>  <ref_mols>  (135) 
A1778a,A4873b

>  <smiles>  (135) 
c1cc2c(c(N3CCNCC3)c1)CCN2

>  <HIPPO Compound ID>  (135) 
1391

>  <HIPPO Pose ID>  (135) 
365470

>  <ref_pdb>  (135) 
A1445a

$$$$
C4655-P339
     RDKit          3D

 11 11  0  0  0  0  0  0  0  0999 V2000
    8.5028   13.0569   24.0124 C   0  0  0  0  0  0  0  0  0  0  0  0
    7.8650   12.6298   25.3153 C   0  0  0  0  0  0  0  0  0  0  0  0
    6.9589   13.6596   25.9724 C   0  0  0  0  0  0  0  0  0  0  0  0
    5.8207   13.3291   26.3249 O   0  0  0  0  0  0  0  0  0  0  0  0
    7.4589   15.0721   26.3122 C   0  0  1  0  0  0  0  0  0  0  0  0
    8.7680   15.0553   27.1004 C   0  0  0  0  0  0  0  0  0  0  0  0
    9.3952   16.4154   27.4195 C   0  0  0  0  0  0  0  0  0  0  0  0
    8.4355   17.5971   27.5400 C   0  0  0  0  0  0  0  0  0  0  0  0
    8.1306   18.1785   26.2408 N   0  0  0  0  0  0  0  0  0  0  0  0
    7.1269   17.4491   25.4597 C   0  0  0  0  0  0  0  0  0  0  0  0
    7.4748   16.0008   25.0994 C   0  0  0  0  0  0  0  0  0  0  0  0
  1  2  1  0
  2  3  1  0
  3  4  2  0
  5  3  1  6
  5  6  1  0
  6  7  1  0
  7  8  1  0
  8  9  1  0
  9 10  1  0
 10 11  1  0
 11  5  1  0
M  END
>  <inchikey>  (136) 
ADVKSLWFNRLRGX-UHFFFAOYSA-N

>  <energy_score>  (136) 
-15.649876

>  <subsites>  (136) 
1 - Active Site

>  <alias>  (136) 
C4655-P339

>  <tags>  (136) 
openbind_a71ev2a_c1_scaffolds,BulkDock Fragalysis export,openbind_a71ev2a_c1_knitwork_impure,fragmenstein_placed

>  <distance_score>  (136) 
0.944117

>  <placement_batch>  (136) 
openbind_a71ev2a_c1_knitwork_impure

>  <name>  (136) 
C4655-P339

>  <ref_mols>  (136) 
A4237b,A4320a

>  <smiles>  (136) 
CCC(=O)[C@H]1CCCNCC1

>  <HIPPO Compound ID>  (136) 
27720

>  <HIPPO Pose ID>  (136) 
365814

>  <ref_pdb>  (136) 
A1445a

$$$$
C4699-P339
     RDKit          3D

 11 11  0  0  0  0  0  0  0  0999 V2000
    8.3669   13.1407   23.9223 C   0  0  0  0  0  0  0  0  0  0  0  0
    7.9378   12.6264   25.2768 C   0  0  0  0  0  0  0  0  0  0  0  0
    7.0059   13.5407   26.0560 C   0  0  0  0  0  0  0  0  0  0  0  0
    5.9378   13.0909   26.4879 O   0  0  0  0  0  0  0  0  0  0  0  0
    7.3901   14.9909   26.3921 C   0  0  0  0  0  0  0  0  0  0  0  0
    8.8624   15.1772   26.7657 C   0  0  0  0  0  0  0  0  0  0  0  0
    9.1294   16.2489   27.8248 C   0  0  0  0  0  0  0  0  0  0  0  0
    8.2588   17.5016   27.7937 C   0  0  0  0  0  0  0  0  0  0  0  0
    7.9740   18.0457   26.4042 C   0  0  0  0  0  0  0  0  0  0  0  0
    6.7664   17.3967   25.7281 C   0  0  0  0  0  0  0  0  0  0  0  0
    6.9564   15.9472   25.2762 C   0  0  0  0  0  0  0  0  0  0  0  0
  1  2  1  0
  2  3  1  0
  3  4  2  0
  3  5  1  0
  5  6  1  0
  6  7  1  0
  7  8  1  0
  8  9  1  0
  9 10  1  0
 10 11  1  0
 11  5  1  0
M  END
>  <inchikey>  (137) 
XNMOBDIPLKKDMN-UHFFFAOYSA-N

>  <energy_score>  (137) 
-23.791714

>  <subsites>  (137) 
1 - Active Site

>  <alias>  (137) 
C4699-P339

>  <tags>  (137) 
openbind_a71ev2a_c1_scaffolds,BulkDock Fragalysis export,openbind_a71ev2a_c1_knitwork_impure,fragmenstein_placed

>  <distance_score>  (137) 
0.983156

>  <placement_batch>  (137) 
openbind_a71ev2a_c1_knitwork_impure

>  <name>  (137) 
C4699-P339

>  <ref_mols>  (137) 
A4237b,A4320a

>  <smiles>  (137) 
CCC(=O)C1CCCCCC1

>  <HIPPO Compound ID>  (137) 
798

>  <HIPPO Pose ID>  (137) 
365827

>  <ref_pdb>  (137) 
A1445a

$$$$
C4730-P339
     RDKit          3D

 11 11  0  0  0  0  0  0  0  0999 V2000
    8.3881   13.7998   23.5020 C   0  0  0  0  0  0  0  0  0  0  0  0
    8.5143   13.0833   24.8315 C   0  0  0  0  0  0  0  0  0  0  0  0
    7.4670   13.4654   25.8731 C   0  0  0  0  0  0  0  0  0  0  0  0
    6.7319   12.5965   26.3590 O   0  0  0  0  0  0  0  0  0  0  0  0
    7.3641   14.9129   26.3636 C   0  0  1  0  0  0  0  0  0  0  0  0
    8.7458   15.5173   26.6346 C   0  0  0  0  0  0  0  0  0  0  0  0
    8.7438   16.6144   27.6976 C   0  0  0  0  0  0  0  0  0  0  0  0
    8.3794   17.9995   27.1882 C   0  0  0  0  0  0  0  0  0  0  0  0
    6.9951   18.1208   26.5643 C   0  0  0  0  0  0  0  0  0  0  0  0
    6.8783   17.4604   25.1988 C   0  0  0  0  0  0  0  0  0  0  0  0
    6.2016   15.7852   25.2544 S   0  0  0  0  0  0  0  0  0  0  0  0
  1  2  1  0
  2  3  1  0
  3  4  2  0
  5  3  1  6
  5  6  1  0
  6  7  1  0
  7  8  1  0
  8  9  1  0
  9 10  1  0
 10 11  1  0
 11  5  1  0
M  END
>  <inchikey>  (138) 
ONRWVJVKMVEFCF-UHFFFAOYSA-N

>  <energy_score>  (138) 
-17.981925

>  <subsites>  (138) 
1 - Active Site

>  <alias>  (138) 
C4730-P339

>  <tags>  (138) 
openbind_a71ev2a_c1_scaffolds,BulkDock Fragalysis export,openbind_a71ev2a_c1_knitwork_impure,fragmenstein_placed

>  <distance_score>  (138) 
0.826607

>  <placement_batch>  (138) 
openbind_a71ev2a_c1_knitwork_impure

>  <name>  (138) 
C4730-P339

>  <ref_mols>  (138) 
A4237b,A4320a

>  <smiles>  (138) 
CCC(=O)[C@H]1CCCCCS1

>  <HIPPO Compound ID>  (138) 
36705

>  <HIPPO Pose ID>  (138) 
365832

>  <ref_pdb>  (138) 
A1445a

$$$$
C6273-P152
     RDKit          3D

 13 14  0  0  0  0  0  0  0  0999 V2000
    8.7088   10.1571   24.6371 C   0  0  0  0  0  0  0  0  0  0  0  0
    8.0476   11.0774   25.4359 C   0  0  0  0  0  0  0  0  0  0  0  0
    8.1250   12.4321   25.1209 C   0  0  0  0  0  0  0  0  0  0  0  0
    8.8490   12.8382   23.9955 C   0  0  0  0  0  0  0  0  0  0  0  0
    8.8369   14.3138   23.6015 C   0  0  1  0  0  0  0  0  0  0  0  0
    9.7025   15.2257   24.3409 N   0  0  0  0  0  0  0  0  0  0  0  0
   11.0712   14.7926   24.5636 C   0  0  0  0  0  0  0  0  0  0  0  0
   11.9264   14.3827   23.3681 C   0  0  0  0  0  0  0  0  0  0  0  0
   11.6198   15.1069   22.0622 C   0  0  0  0  0  0  0  0  0  0  0  0
   10.4998   14.4232   21.2885 C   0  0  0  0  0  0  0  0  0  0  0  0
    8.8005   14.7411   21.8419 S   0  0  0  0  0  0  0  0  0  0  0  0
    9.5298   11.9428   23.2396 N   0  0  0  0  0  0  0  0  0  0  0  0
    9.4370   10.6345   23.5647 C   0  0  0  0  0  0  0  0  0  0  0  0
  1  2  2  0
  2  3  1  0
  3  4  2  0
  5  4  1  6
  5  6  1  0
  6  7  1  0
  7  8  1  0
  8  9  1  0
  9 10  1  0
 10 11  1  0
  4 12  1  0
 12 13  2  0
 13  1  1  0
 11  5  1  0
M  END
>  <inchikey>  (139) 
YGPKMENKUMLTBY-UHFFFAOYSA-N

>  <energy_score>  (139) 
-26.115235

>  <subsites>  (139) 
1 - Active Site

>  <alias>  (139) 
C6273-P152

>  <tags>  (139) 
openbind_a71ev2a_c1_scaffolds,BulkDock Fragalysis export,openbind_a71ev2a_c1_knitwork_impure,fragmenstein_placed

>  <distance_score>  (139) 
0.950774

>  <placement_batch>  (139) 
openbind_a71ev2a_c1_knitwork_impure

>  <name>  (139) 
C6273-P152

>  <ref_mols>  (139) 
A3201a,A2629a

>  <smiles>  (139) 
c1ccc([C@H]2NCCCCS2)nc1

>  <HIPPO Compound ID>  (139) 
9079

>  <HIPPO Pose ID>  (139) 
366428

>  <ref_pdb>  (139) 
A1445a

$$$$
C2382-P2
     RDKit          3D

 15 15  0  0  0  0  0  0  0  0999 V2000
   11.8601   15.3365   21.3622 C   0  0  0  0  0  0  0  0  0  0  0  0
   10.4162   15.1652   20.8978 C   0  0  0  0  0  0  0  0  0  0  0  0
   10.3006   15.6412   19.4506 C   0  0  0  0  0  0  0  0  0  0  0  0
    9.4467   15.9385   21.7912 C   0  0  0  0  0  0  0  0  0  0  0  0
    9.3153   15.3221   23.1783 C   0  0  0  0  0  0  0  0  0  0  0  0
   10.2461   15.4477   23.9881 O   0  0  0  0  0  0  0  0  0  0  0  0
    7.9951   14.5889   23.5924 C   0  0  0  0  0  0  0  0  0  0  0  0
    8.4724   13.2975   24.3058 C   0  0  0  0  0  0  0  0  0  0  0  0
    7.1650   14.1234   22.3911 C   0  0  0  0  0  0  0  0  0  0  0  0
    7.2687   15.5277   24.4918 N   0  0  0  0  0  0  0  0  0  0  0  0
    6.5470   16.6468   23.8734 C   0  0  0  0  0  0  0  0  0  0  0  0
    5.0598   16.3815   23.6150 C   0  0  0  0  0  0  0  0  0  0  0  0
    4.3549   15.8286   24.8467 C   0  0  0  0  0  0  0  0  0  0  0  0
    5.1247   14.6456   25.4206 C   0  0  0  0  0  0  0  0  0  0  0  0
    6.5816   15.0206   25.6764 C   0  0  0  0  0  0  0  0  0  0  0  0
  1  2  1  0
  2  3  1  0
  2  4  1  0
  4  5  1  0
  5  6  2  0
  5  7  1  0
  7  8  1  0
  7  9  1  0
  7 10  1  0
 10 11  1  0
 11 12  1  0
 12 13  1  0
 13 14  1  0
 14 15  1  0
 15 10  1  0
M  END
>  <inchikey>  (140) 
IVEXCVXFXPPGNY-UHFFFAOYSA-N

>  <energy_score>  (140) 
-32.79988

>  <subsites>  (140) 
1 - Active Site

>  <alias>  (140) 
C2382-P2

>  <tags>  (140) 
openbind_a71ev2a_c1_scaffolds,BulkDock Fragalysis export,openbind_a71ev2a_c1_knitwork_impure,fragmenstein_placed

>  <distance_score>  (140) 
0.726126

>  <placement_batch>  (140) 
openbind_a71ev2a_c1_knitwork_impure

>  <name>  (140) 
C2382-P2

>  <ref_mols>  (140) 
A4298a,A1775a

>  <smiles>  (140) 
CC(C)CC(=O)C(C)(C)N1CCCCC1

>  <HIPPO Compound ID>  (140) 
4820

>  <HIPPO Pose ID>  (140) 
366602

>  <ref_pdb>  (140) 
A1445a

$$$$
C15025-P239
     RDKit          3D

 12 12  0  0  0  0  0  0  0  0999 V2000
   10.8213   14.8113   22.8937 C   0  0  0  0  0  0  0  0  0  0  0  0
    9.3428   14.7112   22.5661 C   0  0  0  0  0  0  0  0  0  0  0  0
    8.6273   13.5662   23.2056 N   0  0  0  0  0  0  0  0  0  0  0  0
    8.9130   13.3471   24.8513 S   0  0  0  0  0  0  0  0  0  0  0  0
    8.4374   14.5474   25.5042 O   0  0  0  0  0  0  0  0  0  0  0  0
   10.2618   12.8706   25.0434 O   0  0  0  0  0  0  0  0  0  0  0  0
    7.8296   12.0450   25.3089 C   0  0  0  0  0  0  0  0  0  0  0  0
    6.7467   12.2917   26.1529 C   0  0  0  0  0  0  0  0  0  0  0  0
    5.9881   11.2215   26.6107 C   0  0  0  0  0  0  0  0  0  0  0  0
    6.3463    9.9482   26.2064 C   0  0  0  0  0  0  0  0  0  0  0  0
    7.3939    9.6838   25.3929 N   0  0  0  0  0  0  0  0  0  0  0  0
    8.1260   10.7419   24.9583 C   0  0  0  0  0  0  0  0  0  0  0  0
  1  2  1  0
  2  3  1  0
  3  4  1  0
  4  5  2  0
  4  6  2  0
  4  7  1  0
  7  8  2  0
  8  9  1  0
  9 10  2  0
 10 11  1  0
 11 12  2  0
 12  7  1  0
M  END
>  <inchikey>  (141) 
GIUVSXLAIVLOML-UHFFFAOYSA-N

>  <energy_score>  (141) 
-16.052982

>  <subsites>  (141) 
1 - Active Site

>  <alias>  (141) 
C15025-P239

>  <tags>  (141) 
openbind_a71ev2a_c1_scaffolds,BulkDock Fragalysis export,openbind_a71ev2a_c1_knitwork_impure,fragmenstein_placed

>  <distance_score>  (141) 
0.772786

>  <placement_batch>  (141) 
openbind_a71ev2a_c1_knitwork_impure

>  <name>  (141) 
C15025-P239

>  <ref_mols>  (141) 
A0719a,A3920a

>  <smiles>  (141) 
CCNS(=O)(=O)c1cccnc1

>  <HIPPO Compound ID>  (141) 
15053

>  <HIPPO Pose ID>  (141) 
367285

>  <ref_pdb>  (141) 
A1445a

$$$$
C15027-P239
     RDKit          3D

 13 13  0  0  0  0  0  0  0  0999 V2000
   11.9735   14.7765   22.9450 C   0  0  0  0  0  0  0  0  0  0  0  0
   10.7690   15.1004   23.4292 C   0  0  0  0  0  0  0  0  0  0  0  0
    9.4850   14.8768   22.6869 C   0  0  0  0  0  0  0  0  0  0  0  0
    8.6343   13.7151   23.1929 C   0  0  0  0  0  0  0  0  0  0  0  0
    7.8305   13.1609   22.4309 O   0  0  0  0  0  0  0  0  0  0  0  0
    8.6845   13.3814   24.6906 C   0  0  1  0  0  0  0  0  0  0  0  0
    8.0232   14.4348   25.3912 O   0  0  0  0  0  0  0  0  0  0  0  0
    8.0856   12.0347   25.0482 C   0  0  0  0  0  0  0  0  0  0  0  0
    7.0180   11.8971   25.9444 C   0  0  0  0  0  0  0  0  0  0  0  0
    6.5379   10.6290   26.2283 C   0  0  0  0  0  0  0  0  0  0  0  0
    7.0589    9.4989   25.7097 N   0  0  0  0  0  0  0  0  0  0  0  0
    8.0922    9.6488   24.8513 C   0  0  0  0  0  0  0  0  0  0  0  0
    8.6281   10.8714   24.4930 C   0  0  0  0  0  0  0  0  0  0  0  0
  1  2  2  0
  2  3  1  0
  3  4  1  0
  4  5  2  0
  4  6  1  0
  6  7  1  1
  6  8  1  0
  8  9  2  0
  9 10  1  0
 10 11  2  0
 11 12  1  0
 12 13  2  0
 13  8  1  0
M  END
>  <inchikey>  (142) 
DETFJAMYSPHHBK-UHFFFAOYSA-N

>  <energy_score>  (142) 
-8.196237

>  <subsites>  (142) 
1 - Active Site

>  <alias>  (142) 
C15027-P239

>  <tags>  (142) 
openbind_a71ev2a_c1_scaffolds,BulkDock Fragalysis export,openbind_a71ev2a_c1_knitwork_impure,fragmenstein_placed

>  <distance_score>  (142) 
0.710399

>  <placement_batch>  (142) 
openbind_a71ev2a_c1_knitwork_impure

>  <name>  (142) 
C15027-P239

>  <ref_mols>  (142) 
A0719a,A3920a

>  <smiles>  (142) 
C=CCC(=O)[C@@H](O)c1ccncc1

>  <HIPPO Compound ID>  (142) 
1257

>  <HIPPO Pose ID>  (142) 
367286

>  <ref_pdb>  (142) 
A1445a

$$$$
C15036-P239
     RDKit          3D

 14 14  0  0  0  0  0  0  0  0999 V2000
   12.2724   16.1233   21.4335 N   0  0  0  0  0  0  0  0  0  0  0  0
   11.7253   15.3803   22.1329 C   0  0  0  0  0  0  0  0  0  0  0  0
   10.9562   14.4839   22.9902 C   0  0  0  0  0  0  0  0  0  0  0  0
    9.4826   14.5146   22.5849 C   0  0  0  0  0  0  0  0  0  0  0  0
    8.6165   13.4668   23.2319 N   0  0  0  0  0  0  0  0  0  0  0  0
    8.8195   13.2974   24.8967 S   0  0  0  0  0  0  0  0  0  0  0  0
   10.1659   12.8432   25.1492 O   0  0  0  0  0  0  0  0  0  0  0  0
    8.3236   14.5244   25.4772 O   0  0  0  0  0  0  0  0  0  0  0  0
    7.7389   12.0020   25.3549 C   0  0  0  0  0  0  0  0  0  0  0  0
    6.6593   12.2508   26.2008 C   0  0  0  0  0  0  0  0  0  0  0  0
    5.9032   11.1806   26.6613 C   0  0  0  0  0  0  0  0  0  0  0  0
    6.2604    9.9071   26.2563 C   0  0  0  0  0  0  0  0  0  0  0  0
    7.3065    9.6419   25.4407 N   0  0  0  0  0  0  0  0  0  0  0  0
    8.0364   10.6990   25.0046 C   0  0  0  0  0  0  0  0  0  0  0  0
  1  2  3  0
  2  3  1  0
  3  4  1  0
  4  5  1  0
  5  6  1  0
  6  7  2  0
  6  8  2  0
  6  9  1  0
  9 10  2  0
 10 11  1  0
 11 12  2  0
 12 13  1  0
 13 14  2  0
 14  9  1  0
M  END
>  <inchikey>  (143) 
LJZIXTIXXJIVMZ-UHFFFAOYSA-N

>  <energy_score>  (143) 
-26.115794

>  <subsites>  (143) 
1 - Active Site

>  <alias>  (143) 
C15036-P239

>  <tags>  (143) 
openbind_a71ev2a_c1_scaffolds,BulkDock Fragalysis export,openbind_a71ev2a_c1_knitwork_impure,fragmenstein_placed

>  <distance_score>  (143) 
0.768853

>  <placement_batch>  (143) 
openbind_a71ev2a_c1_knitwork_impure

>  <name>  (143) 
C15036-P239

>  <ref_mols>  (143) 
A0719a,A3920a

>  <smiles>  (143) 
N#CCCNS(=O)(=O)c1cccnc1

>  <HIPPO Compound ID>  (143) 
15036

>  <HIPPO Pose ID>  (143) 
367297

>  <ref_pdb>  (143) 
A1445a

$$$$
C15044-P239
     RDKit          3D

 15 15  0  0  0  0  0  0  0  0999 V2000
   10.7251   15.1184   19.6152 N   0  0  0  0  0  0  0  0  0  0  0  0
   11.4015   15.4282   20.5025 C   0  0  0  0  0  0  0  0  0  0  0  0
   12.1989   15.8386   21.6577 C   0  0  0  0  0  0  0  0  0  0  0  0
   12.1209   14.8352   22.8083 C   0  0  0  0  0  0  0  0  0  0  0  0
   10.7878   14.8499   23.5487 C   0  0  0  0  0  0  0  0  0  0  0  0
    9.7708   14.1526   22.7799 N   0  0  0  0  0  0  0  0  0  0  0  0
    8.3603   13.6688   23.5328 S   0  0  0  0  0  0  0  0  0  0  0  0
    8.2270   14.4328   24.7549 O   0  0  0  0  0  0  0  0  0  0  0  0
    7.3424   13.6208   22.5045 O   0  0  0  0  0  0  0  0  0  0  0  0
    8.6071   11.9886   24.0325 C   0  0  0  0  0  0  0  0  0  0  0  0
    7.7756   11.4560   25.0063 C   0  0  0  0  0  0  0  0  0  0  0  0
    7.8673   10.0950   25.2280 C   0  0  0  0  0  0  0  0  0  0  0  0
    8.7716    9.3520   24.4733 C   0  0  0  0  0  0  0  0  0  0  0  0
    9.5682    9.9853   23.5373 C   0  0  0  0  0  0  0  0  0  0  0  0
    9.5216   11.3036   23.3060 N   0  0  0  0  0  0  0  0  0  0  0  0
  1  2  3  0
  2  3  1  0
  3  4  1  0
  4  5  1  0
  5  6  1  0
  6  7  1  0
  7  8  2  0
  7  9  2  0
  7 10  1  0
 10 11  2  0
 11 12  1  0
 12 13  2  0
 13 14  1  0
 14 15  2  0
 15 10  1  0
M  END
>  <inchikey>  (144) 
KHYQSBBCZQEPEA-UHFFFAOYSA-N

>  <energy_score>  (144) 
-23.885141

>  <subsites>  (144) 
1 - Active Site

>  <alias>  (144) 
C15044-P239

>  <tags>  (144) 
openbind_a71ev2a_c1_scaffolds,BulkDock Fragalysis export,openbind_a71ev2a_c1_knitwork_impure,fragmenstein_placed

>  <distance_score>  (144) 
0.883668

>  <placement_batch>  (144) 
openbind_a71ev2a_c1_knitwork_impure

>  <name>  (144) 
C15044-P239

>  <ref_mols>  (144) 
A0719a,A3920a

>  <smiles>  (144) 
N#CCCCNS(=O)(=O)c1ccccn1

>  <HIPPO Compound ID>  (144) 
7185

>  <HIPPO Pose ID>  (144) 
367303

>  <ref_pdb>  (144) 
A1445a

$$$$
C15048-P239
     RDKit          3D

 16 16  0  0  0  0  0  0  0  0999 V2000
    8.3584   15.9084   26.7390 C   0  0  0  0  0  0  0  0  0  0  0  0
    7.6206   14.5741   26.6651 C   0  0  0  0  0  0  0  0  0  0  0  0
    7.8180   13.8613   25.2999 C   0  0  2  0  0  0  0  0  0  0  0  0
    6.8864   14.5083   24.3497 N   0  0  0  0  0  0  0  0  0  0  0  0
    7.3124   14.4670   22.7269 S   0  0  0  0  0  0  0  0  0  0  0  0
    8.4498   15.3402   22.5829 O   0  0  0  0  0  0  0  0  0  0  0  0
    7.3212   13.1099   22.2473 O   0  0  0  0  0  0  0  0  0  0  0  0
    5.9505   15.2339   22.1173 N   0  0  0  0  0  0  0  0  0  0  0  0
    5.7474   16.6092   22.5769 C   0  0  0  0  0  0  0  0  0  0  0  0
    4.7087   14.4425   22.0835 C   0  0  0  0  0  0  0  0  0  0  0  0
    7.6006   12.3612   25.4102 C   0  0  0  0  0  0  0  0  0  0  0  0
    8.4485   11.4947   24.7083 C   0  0  0  0  0  0  0  0  0  0  0  0
    8.2457   10.1269   24.8006 C   0  0  0  0  0  0  0  0  0  0  0  0
    7.2743    9.5636   25.5510 N   0  0  0  0  0  0  0  0  0  0  0  0
    6.4484   10.4070   26.2008 C   0  0  0  0  0  0  0  0  0  0  0  0
    6.5653   11.7896   26.1600 C   0  0  0  0  0  0  0  0  0  0  0  0
  1  2  1  0
  3  2  1  1
  3  4  1  0
  4  5  1  0
  5  6  2  0
  5  7  2  0
  5  8  1  0
  8  9  1  0
  8 10  1  0
  3 11  1  0
 11 12  2  0
 12 13  1  0
 13 14  2  0
 14 15  1  0
 15 16  2  0
 16 11  1  0
M  END
>  <inchikey>  (145) 
SEVSZWOINVGPQI-UHFFFAOYSA-N

>  <energy_score>  (145) 
-34.186142

>  <subsites>  (145) 
1 - Active Site

>  <alias>  (145) 
C15048-P239

>  <tags>  (145) 
openbind_a71ev2a_c1_scaffolds,BulkDock Fragalysis export,openbind_a71ev2a_c1_knitwork_impure,fragmenstein_placed

>  <distance_score>  (145) 
0.800033

>  <placement_batch>  (145) 
openbind_a71ev2a_c1_knitwork_impure

>  <name>  (145) 
C15048-P239

>  <ref_mols>  (145) 
A0719a,A3920a

>  <smiles>  (145) 
CC[C@H](NS(=O)(=O)N(C)C)c1ccncc1

>  <HIPPO Compound ID>  (145) 
8165

>  <HIPPO Pose ID>  (145) 
367306

>  <ref_pdb>  (145) 
A1445a

$$$$
C15051-P239
     RDKit          3D

 14 14  0  0  0  0  0  0  0  0999 V2000
    8.1394   14.8345   25.1334 C   0  0  0  0  0  0  0  0  0  0  0  0
    8.7676   13.5086   24.6788 C   0  0  2  0  0  0  0  0  0  0  0  0
   10.0769   13.4521   25.2625 O   0  0  0  0  0  0  0  0  0  0  0  0
    8.7610   13.5478   23.1345 C   0  0  0  0  0  0  0  0  0  0  0  0
    7.7814   13.1975   22.4631 O   0  0  0  0  0  0  0  0  0  0  0  0
    9.9992   14.1351   22.4911 C   0  0  0  0  0  0  0  0  0  0  0  0
   10.7125   14.9116   23.3696 F   0  0  0  0  0  0  0  0  0  0  0  0
    9.6873   14.9646   21.4569 F   0  0  0  0  0  0  0  0  0  0  0  0
    8.0266   12.2631   25.1628 C   0  0  0  0  0  0  0  0  0  0  0  0
    6.9231   12.3276   26.0177 C   0  0  0  0  0  0  0  0  0  0  0  0
    6.2973   11.1535   26.4211 C   0  0  0  0  0  0  0  0  0  0  0  0
    6.7774    9.9400   25.9601 C   0  0  0  0  0  0  0  0  0  0  0  0
    7.8796    9.9451   25.1238 C   0  0  0  0  0  0  0  0  0  0  0  0
    8.5174   11.0684   24.7362 N   0  0  0  0  0  0  0  0  0  0  0  0
  2  1  1  1
  2  3  1  0
  2  4  1  0
  4  5  2  0
  4  6  1  0
  6  7  1  0
  6  8  1  0
  2  9  1  0
  9 10  2  0
 10 11  1  0
 11 12  2  0
 12 13  1  0
 13 14  2  0
 14  9  1  0
M  END
>  <inchikey>  (146) 
QYTMWYMZVFYJAW-UHFFFAOYSA-N

>  <energy_score>  (146) 
-15.837759

>  <subsites>  (146) 
1 - Active Site

>  <alias>  (146) 
C15051-P239

>  <tags>  (146) 
openbind_a71ev2a_c1_scaffolds,BulkDock Fragalysis export,openbind_a71ev2a_c1_knitwork_impure,fragmenstein_placed

>  <distance_score>  (146) 
0.612539

>  <placement_batch>  (146) 
openbind_a71ev2a_c1_knitwork_impure

>  <name>  (146) 
C15051-P239

>  <ref_mols>  (146) 
A0719a,A3920a

>  <smiles>  (146) 
C[C@](O)(C(=O)C(F)F)c1ccccn1

>  <HIPPO Compound ID>  (146) 
27907

>  <HIPPO Pose ID>  (146) 
367309

>  <ref_pdb>  (146) 
A1445a

$$$$
C15065-P239
     RDKit          3D

 13 13  0  0  0  0  0  0  0  0999 V2000
   11.9726   15.2078   22.9257 C   0  0  0  0  0  0  0  0  0  0  0  0
   11.0263   14.3347   23.5322 O   0  0  0  0  0  0  0  0  0  0  0  0
    9.7575   14.4232   22.8804 C   0  0  0  0  0  0  0  0  0  0  0  0
    8.8881   13.2221   23.2630 C   0  0  2  0  0  0  0  0  0  0  0  0
    7.7062   13.1845   22.4480 O   0  0  0  0  0  0  0  0  0  0  0  0
    8.4282   13.2715   24.7165 C   0  0  0  0  0  0  0  0  0  0  0  0
    8.4835   14.2898   25.4060 O   0  0  0  0  0  0  0  0  0  0  0  0
    7.7443   12.0859   25.2907 C   0  0  0  0  0  0  0  0  0  0  0  0
    6.7797   12.2980   26.2820 C   0  0  0  0  0  0  0  0  0  0  0  0
    6.0764   11.2213   26.8094 C   0  0  0  0  0  0  0  0  0  0  0  0
    6.3764    9.9576   26.3396 C   0  0  0  0  0  0  0  0  0  0  0  0
    7.3245    9.7085   25.4105 N   0  0  0  0  0  0  0  0  0  0  0  0
    7.9834   10.7792   24.8922 C   0  0  0  0  0  0  0  0  0  0  0  0
  1  2  1  0
  2  3  1  0
  3  4  1  0
  4  5  1  6
  4  6  1  0
  6  7  2  0
  6  8  1  0
  8  9  2  0
  9 10  1  0
 10 11  2  0
 11 12  1  0
 12 13  2  0
 13  8  1  0
M  END
>  <inchikey>  (147) 
MLNMURZXNDQHPB-UHFFFAOYSA-N

>  <energy_score>  (147) 
-22.774291

>  <subsites>  (147) 
1 - Active Site

>  <alias>  (147) 
C15065-P239

>  <tags>  (147) 
openbind_a71ev2a_c1_scaffolds,BulkDock Fragalysis export,openbind_a71ev2a_c1_knitwork_impure,fragmenstein_placed

>  <distance_score>  (147) 
0.816567

>  <placement_batch>  (147) 
openbind_a71ev2a_c1_knitwork_impure

>  <name>  (147) 
C15065-P239

>  <ref_mols>  (147) 
A0719a,A3920a

>  <smiles>  (147) 
COC[C@H](O)C(=O)c1cccnc1

>  <HIPPO Compound ID>  (147) 
10333

>  <HIPPO Pose ID>  (147) 
367324

>  <ref_pdb>  (147) 
A1445a

$$$$
C15066-P239
     RDKit          3D

 15 15  0  0  0  0  0  0  0  0999 V2000
   12.1473   15.8456   21.6836 C   0  0  0  0  0  0  0  0  0  0  0  0
   12.0866   14.7657   22.7481 C   0  0  0  0  0  0  0  0  0  0  0  0
   10.7620   14.6753   23.5092 C   0  0  0  0  0  0  0  0  0  0  0  0
    9.5369   14.4454   22.6172 C   0  0  2  0  0  0  0  0  0  0  0  0
    8.8710   15.7443   22.1745 C   0  0  0  0  0  0  0  0  0  0  0  0
    8.4422   13.5548   23.2053 C   0  0  0  0  0  0  0  0  0  0  0  0
    7.7478   12.8836   22.4295 O   0  0  0  0  0  0  0  0  0  0  0  0
    8.0374   13.6530   24.6881 C   0  0  2  0  0  0  0  0  0  0  0  0
    8.9178   14.2397   25.6176 O   0  0  0  0  0  0  0  0  0  0  0  0
    7.5507   12.3514   25.2917 C   0  0  0  0  0  0  0  0  0  0  0  0
    6.5593   12.3943   26.2830 C   0  0  0  0  0  0  0  0  0  0  0  0
    6.0258   11.2197   26.7962 C   0  0  0  0  0  0  0  0  0  0  0  0
    6.5192   10.0228   26.3193 C   0  0  0  0  0  0  0  0  0  0  0  0
    7.5147    9.9273   25.4146 N   0  0  0  0  0  0  0  0  0  0  0  0
    8.0047   11.0905   24.9140 C   0  0  0  0  0  0  0  0  0  0  0  0
  1  2  1  0
  2  3  1  0
  3  4  1  0
  4  5  1  1
  4  6  1  0
  6  7  2  0
  6  8  1  0
  8  9  1  1
  8 10  1  0
 10 11  2  0
 11 12  1  0
 12 13  2  0
 13 14  1  0
 14 15  2  0
 15 10  1  0
M  END
>  <inchikey>  (148) 
CWSPXHPREHEYCE-UHFFFAOYSA-N

>  <energy_score>  (148) 
-19.734091

>  <subsites>  (148) 
1 - Active Site

>  <alias>  (148) 
C15066-P239

>  <tags>  (148) 
openbind_a71ev2a_c1_scaffolds,BulkDock Fragalysis export,openbind_a71ev2a_c1_knitwork_impure,fragmenstein_placed

>  <distance_score>  (148) 
0.972675

>  <placement_batch>  (148) 
openbind_a71ev2a_c1_knitwork_impure

>  <name>  (148) 
C15066-P239

>  <ref_mols>  (148) 
A0719a,A3920a

>  <smiles>  (148) 
CCC[C@H](C)C(=O)[C@H](O)c1cccnc1

>  <HIPPO Compound ID>  (148) 
87026

>  <HIPPO Pose ID>  (148) 
367325

>  <ref_pdb>  (148) 
A1445a

$$$$
C8152-P239
     RDKit          3D

 14 14  0  0  0  0  0  0  0  0999 V2000
    9.4913    8.8751   23.6125 C   0  0  0  0  0  0  0  0  0  0  0  0
    9.5982   10.3678   23.4021 C   0  0  0  0  0  0  0  0  0  0  0  0
    8.3337   10.9772   23.6770 O   0  0  0  0  0  0  0  0  0  0  0  0
    8.2644   11.7421   24.7948 C   0  0  0  0  0  0  0  0  0  0  0  0
    7.6695   11.3464   25.7920 O   0  0  0  0  0  0  0  0  0  0  0  0
    9.0079   13.0861   24.6951 C   0  0  2  0  0  0  0  0  0  0  0  0
    8.4213   14.0707   25.5567 O   0  0  0  0  0  0  0  0  0  0  0  0
    9.0724   13.6476   23.2559 C   0  0  0  0  0  0  0  0  0  0  0  0
    9.4672   15.0726   23.2284 N   0  0  0  0  0  0  0  0  0  0  0  0
   10.8166   15.3418   23.7529 C   0  0  0  0  0  0  0  0  0  0  0  0
   11.9503   14.8865   22.8364 C   0  0  0  0  0  0  0  0  0  0  0  0
   11.8105   15.5127   21.4556 C   0  0  0  0  0  0  0  0  0  0  0  0
   10.4204   15.2496   20.8930 C   0  0  0  0  0  0  0  0  0  0  0  0
    9.3246   15.6600   21.8800 C   0  0  0  0  0  0  0  0  0  0  0  0
  1  2  1  0
  2  3  1  0
  3  4  1  0
  4  5  2  0
  4  6  1  0
  6  7  1  1
  6  8  1  0
  8  9  1  0
  9 10  1  0
 10 11  1  0
 11 12  1  0
 12 13  1  0
 13 14  1  0
 14  9  1  0
M  END
>  <inchikey>  (149) 
DSRVXZMXCPNZDO-UHFFFAOYSA-N

>  <energy_score>  (149) 
-15.446097

>  <subsites>  (149) 
1 - Active Site

>  <alias>  (149) 
C8152-P239

>  <tags>  (149) 
openbind_a71ev2a_c1_scaffolds,BulkDock Fragalysis export,openbind_a71ev2a_c1_knitwork_impure,fragmenstein_placed

>  <distance_score>  (149) 
0.99667

>  <placement_batch>  (149) 
openbind_a71ev2a_c1_knitwork_impure

>  <name>  (149) 
C8152-P239

>  <ref_mols>  (149) 
A0719a,A3920a

>  <smiles>  (149) 
CCOC(=O)[C@H](O)CN1CCCCC1

>  <HIPPO Compound ID>  (149) 
5168

>  <HIPPO Pose ID>  (149) 
367347

>  <ref_pdb>  (149) 
A1445a

$$$$
C6115-P290
     RDKit          3D

 14 16  0  0  0  0  0  0  0  0999 V2000
    6.7484   12.9310   25.5054 C   0  0  0  0  0  0  0  0  0  0  0  0
    5.5683   13.1249   26.2375 C   0  0  0  0  0  0  0  0  0  0  0  0
    4.8600   12.0106   26.6328 C   0  0  0  0  0  0  0  0  0  0  0  0
    5.2920   10.7350   26.2963 C   0  0  0  0  0  0  0  0  0  0  0  0
    6.4381   10.5500   25.5491 C   0  0  0  0  0  0  0  0  0  0  0  0
    7.2253   11.6472   25.1607 C   0  0  0  0  0  0  0  0  0  0  0  0
    8.4086   11.4708   24.4794 N   0  0  0  0  0  0  0  0  0  0  0  0
    8.9263   10.1530   24.1398 C   0  0  0  0  0  0  0  0  0  0  0  0
   10.2030   10.4285   23.3743 C   0  0  0  0  0  0  0  0  0  0  0  0
   10.6304   11.8174   23.8280 C   0  0  0  0  0  0  0  0  0  0  0  0
    9.3229   12.5393   24.1095 C   0  0  0  0  0  0  0  0  0  0  0  0
    4.3774    9.7424   26.6629 N   0  0  0  0  0  0  0  0  0  0  0  0
    3.5338   10.3849   27.6670 C   0  0  0  0  0  0  0  0  0  0  0  0
    3.5676   11.9020   27.3717 C   0  0  0  0  0  0  0  0  0  0  0  0
  1  2  2  0
  2  3  1  0
  3  4  2  0
  4  5  1  0
  5  6  2  0
  6  7  1  0
  7  8  1  0
  8  9  1  0
  9 10  1  0
 10 11  1  0
  4 12  1  0
 12 13  1  0
 13 14  1  0
  6  1  1  0
 11  7  1  0
 14  3  1  0
M  END
>  <inchikey>  (150) 
SGWHFDPWZAGZRG-UHFFFAOYSA-N

>  <energy_score>  (150) 
-21.85154

>  <subsites>  (150) 
1 - Active Site

>  <alias>  (150) 
C6115-P290

>  <tags>  (150) 
openbind_a71ev2a_c1_scaffolds,BulkDock Fragalysis export,openbind_a71ev2a_c1_knitwork_impure,fragmenstein_placed

>  <distance_score>  (150) 
0.801932

>  <placement_batch>  (150) 
openbind_a71ev2a_c1_knitwork_impure

>  <name>  (150) 
C6115-P290

>  <ref_mols>  (150) 
A4306a,A1778a

>  <smiles>  (150) 
c1cc2c(cc1N1CCCC1)NCC2

>  <HIPPO Compound ID>  (150) 
27906

>  <HIPPO Pose ID>  (150) 
367419

>  <ref_pdb>  (150) 
A1445a

$$$$
C1392-P557
     RDKit          3D

 17 17  0  0  0  0  0  0  0  0999 V2000
   10.7172   12.7763   23.9461 C   0  0  0  0  0  0  0  0  0  0  0  0
    9.3134   13.3319   24.2902 C   0  0  0  0  0  0  0  0  0  0  0  0
    9.4924   14.5612   25.2111 C   0  0  0  0  0  0  0  0  0  0  0  0
    8.6522   13.7284   22.9316 C   0  0  0  0  0  0  0  0  0  0  0  0
    7.7196   13.1816   22.4894 O   0  0  0  0  0  0  0  0  0  0  0  0
    9.5379   14.8529   22.3298 N   0  0  0  0  0  0  0  0  0  0  0  0
    9.5143   15.4687   21.0194 C   0  0  0  0  0  0  0  0  0  0  0  0
   10.9166   15.5073   20.4112 C   0  0  0  0  0  0  0  0  0  0  0  0
   10.9213   16.1161   19.2156 F   0  0  0  0  0  0  0  0  0  0  0  0
   11.7561   16.1793   21.2417 F   0  0  0  0  0  0  0  0  0  0  0  0
   11.4403   14.2774   20.2514 F   0  0  0  0  0  0  0  0  0  0  0  0
    8.4940   12.2485   25.0831 C   0  0  1  0  0  0  0  0  0  0  0  0
    7.1032   12.7075   25.5560 C   0  0  0  0  0  0  0  0  0  0  0  0
    6.4750   11.6779   26.4929 C   0  0  0  0  0  0  0  0  0  0  0  0
    6.5499   10.2532   25.9597 C   0  0  0  0  0  0  0  0  0  0  0  0
    7.8549    9.8822   25.4295 N   0  0  0  0  0  0  0  0  0  0  0  0
    8.3886   10.8520   24.4654 C   0  0  0  0  0  0  0  0  0  0  0  0
  1  2  1  0
  2  3  1  0
  2  4  1  0
  4  5  2  0
  4  6  1  0
  6  7  1  0
  7  8  1  0
  8  9  1  0
  8 10  1  0
  8 11  1  0
 12  2  1  6
 12 13  1  0
 13 14  1  0
 14 15  1  0
 15 16  1  0
 16 17  1  0
 17 12  1  0
M  END
>  <inchikey>  (151) 
OTUZIMGZAJGPTD-UHFFFAOYSA-N

>  <energy_score>  (151) 
-10.173553

>  <subsites>  (151) 
1 - Active Site

>  <alias>  (151) 
C1392-P557

>  <tags>  (151) 
openbind_a71ev2a_c1_scaffolds,BulkDock Fragalysis export,openbind_a71ev2a_c1_knitwork_impure,fragmenstein_placed

>  <distance_score>  (151) 
0.907826

>  <placement_batch>  (151) 
openbind_a71ev2a_c1_knitwork_impure

>  <name>  (151) 
C1392-P557

>  <ref_mols>  (151) 
A1778a,A5079a

>  <smiles>  (151) 
CC(C)(C(=O)NCC(F)(F)F)[C@H]1CCCNC1

>  <HIPPO Compound ID>  (151) 
20947

>  <HIPPO Pose ID>  (151) 
367695

>  <ref_pdb>  (151) 
A5079a

$$$$
C1394-P557
     RDKit          3D

 18 18  0  0  0  0  0  0  0  0999 V2000
   12.1578   14.6054   23.5889 C   0  0  0  0  0  0  0  0  0  0  0  0
   12.2605   15.5874   22.0817 S   0  0  0  0  0  0  0  0  0  0  0  0
   10.8296   14.9264   21.1573 C   0  0  0  0  0  0  0  0  0  0  0  0
    9.4542   15.4131   21.6704 C   0  0  0  0  0  0  0  0  0  0  0  0
    9.3668   16.9264   21.6720 C   0  0  0  0  0  0  0  0  0  0  0  0
    8.3841   14.9409   20.7191 C   0  0  0  0  0  0  0  0  0  0  0  0
    9.1537   14.8239   22.9693 N   0  0  0  0  0  0  0  0  0  0  0  0
    8.4777   13.4748   23.3314 C   0  0  0  0  0  0  0  0  0  0  0  0
    7.9888   12.6646   22.6453 O   0  0  0  0  0  0  0  0  0  0  0  0
    8.6244   13.2408   24.8444 C   0  0  0  0  0  0  0  0  0  0  0  0
    9.8546   12.6985   25.1095 F   0  0  0  0  0  0  0  0  0  0  0  0
    8.6114   14.4145   25.5309 F   0  0  0  0  0  0  0  0  0  0  0  0
    7.4759   12.3064   25.2778 C   0  0  2  0  0  0  0  0  0  0  0  0
    6.8616   12.5551   26.6496 C   0  0  0  0  0  0  0  0  0  0  0  0
    5.7095   11.5826   26.9036 C   0  0  0  0  0  0  0  0  0  0  0  0
    5.9965   10.1499   26.4549 C   0  0  0  0  0  0  0  0  0  0  0  0
    7.3718    9.9198   26.0551 N   0  0  0  0  0  0  0  0  0  0  0  0
    7.8524   10.8381   25.0332 C   0  0  0  0  0  0  0  0  0  0  0  0
  1  2  1  0
  2  3  1  0
  3  4  1  0
  4  5  1  0
  4  6  1  0
  4  7  1  0
  7  8  1  0
  8  9  2  0
  8 10  1  0
 10 11  1  0
 10 12  1  0
 13 10  1  1
 13 14  1  0
 14 15  1  0
 15 16  1  0
 16 17  1  0
 17 18  1  0
 18 13  1  0
M  END
>  <inchikey>  (152) 
YWXZMUQGZGJALN-UHFFFAOYSA-N

>  <energy_score>  (152) 
-7.808253

>  <subsites>  (152) 
1 - Active Site

>  <alias>  (152) 
C1394-P557

>  <tags>  (152) 
openbind_a71ev2a_c1_scaffolds,BulkDock Fragalysis export,openbind_a71ev2a_c1_knitwork_impure,fragmenstein_placed

>  <distance_score>  (152) 
0.964364

>  <placement_batch>  (152) 
openbind_a71ev2a_c1_knitwork_impure

>  <name>  (152) 
C1394-P557

>  <ref_mols>  (152) 
A1778a,A5079a

>  <smiles>  (152) 
CSCC(C)(C)NC(=O)C(F)(F)[C@@H]1CCCNC1

>  <HIPPO Compound ID>  (152) 
15351

>  <HIPPO Pose ID>  (152) 
367697

>  <ref_pdb>  (152) 
A5079a

$$$$
C14594-P412
     RDKit          3D

 23 24  0  0  0  0  0  0  0  0999 V2000
    6.7265   -9.1399   11.0579 C   0  0  0  0  0  0  0  0  0  0  0  0
    7.8662   -8.4185   10.3321 C   0  0  0  0  0  0  0  0  0  0  0  0
    8.0736   -9.0602    8.9509 C   0  0  0  0  0  0  0  0  0  0  0  0
    8.8172   -8.1586    8.1169 O   0  0  0  0  0  0  0  0  0  0  0  0
    7.5239   -6.9399   10.1117 C   0  0  0  0  0  0  0  0  0  0  0  0
    6.7492   -6.7286    8.9471 O   0  0  0  0  0  0  0  0  0  0  0  0
    9.0559   -8.4164   11.1838 N   0  0  0  0  0  0  0  0  0  0  0  0
   10.1938   -9.4545   11.3176 C   0  0  0  0  0  0  0  0  0  0  0  0
   10.3924  -10.4097   10.7287 O   0  0  0  0  0  0  0  0  0  0  0  0
   11.0422   -8.7591   12.4215 N   0  0  0  0  0  0  0  0  0  0  0  0
   12.3005   -9.0667   12.9123 C   0  0  0  0  0  0  0  0  0  0  0  0
   13.0820  -10.0573   12.3375 C   0  0  0  0  0  0  0  0  0  0  0  0
   14.3372  -10.2737   12.8714 C   0  0  0  0  0  0  0  0  0  0  0  0
   14.8285   -9.5976   13.9317 N   0  0  0  0  0  0  0  0  0  0  0  0
   14.0248   -8.6698   14.4862 C   0  0  0  0  0  0  0  0  0  0  0  0
   14.4609   -7.9441   15.5745 O   0  0  0  0  0  0  0  0  0  0  0  0
   15.4412   -8.6116   16.3851 C   0  0  0  0  0  0  0  0  0  0  0  0
   14.7714   -9.6998   17.2389 C   0  0  0  0  0  0  0  0  0  0  0  0
   15.7322  -10.3030   18.2579 C   0  0  0  0  0  0  0  0  0  0  0  0
   16.3519   -9.2299   19.1464 C   0  0  0  0  0  0  0  0  0  0  0  0
   17.0268   -8.1432   18.3172 C   0  0  0  0  0  0  0  0  0  0  0  0
   16.0700   -7.5442   17.2923 C   0  0  0  0  0  0  0  0  0  0  0  0
   12.7818   -8.3351   13.9901 C   0  0  0  0  0  0  0  0  0  0  0  0
  1  2  1  0
  2  3  1  0
  3  4  1  0
  2  5  1  0
  5  6  1  0
  2  7  1  0
  7  8  1  0
  8  9  2  0
  8 10  1  0
 10 11  1  0
 11 12  2  0
 12 13  1  0
 13 14  2  0
 14 15  1  0
 15 16  1  0
 16 17  1  0
 17 18  1  0
 18 19  1  0
 19 20  1  0
 20 21  1  0
 21 22  1  0
 15 23  2  0
 23 11  1  0
 22 17  1  0
M  END
>  <inchikey>  (153) 
GHIJXTOSIYSZBD-UHFFFAOYSA-N

>  <energy_score>  (153) 
-17.808589

>  <subsites>  (153) 
1 - Active Site,2 - A3977/A/202/1

>  <alias>  (153) 
C14594-P412

>  <tags>  (153) 
openbind_a71ev2a_c1_scaffolds,BulkDock Fragalysis export,openbind_a71ev2a_c1_knitwork_impure,fragmenstein_placed

>  <distance_score>  (153) 
0.713508

>  <placement_batch>  (153) 
openbind_a71ev2a_c1_knitwork_impure

>  <name>  (153) 
C14594-P412

>  <ref_mols>  (153) 
A0395a,A4586a

>  <smiles>  (153) 
CC(CO)(CO)NC(=O)Nc1ccnc(OC2CCCCC2)c1

>  <HIPPO Compound ID>  (153) 
7605

>  <HIPPO Pose ID>  (153) 
367885

>  <ref_pdb>  (153) 
A5079a

$$$$
C38619-P404
     RDKit          3D

 13 13  0  0  0  0  0  0  0  0999 V2000
    7.7641   10.9857   25.2058 C   0  0  0  0  0  0  0  0  0  0  0  0
    8.8692   10.8035   24.1949 C   0  0  0  0  0  0  0  0  0  0  0  0
    9.7034   12.0334   23.9064 C   0  0  0  0  0  0  0  0  0  0  0  0
   10.9338   11.9238   23.8873 O   0  0  0  0  0  0  0  0  0  0  0  0
    8.9982   13.3391   23.4784 C   0  0  1  0  0  0  0  0  0  0  0  0
    8.1379   14.0092   24.5416 C   0  0  0  0  0  0  0  0  0  0  0  0
   10.0275   14.2470   22.9505 N   0  0  0  0  0  0  0  0  0  0  0  0
    9.9543   14.6217   21.5426 C   0  0  0  0  0  0  0  0  0  0  0  0
   11.3150   14.9332   20.9526 C   0  0  0  0  0  0  0  0  0  0  0  0
   11.9437   16.0288   21.7825 C   0  0  0  0  0  0  0  0  0  0  0  0
   12.0864   15.5981   23.2266 C   0  0  0  0  0  0  0  0  0  0  0  0
   10.9438   14.8123   23.8224 C   0  0  0  0  0  0  0  0  0  0  0  0
   10.9073   14.6413   25.0450 O   0  0  0  0  0  0  0  0  0  0  0  0
  1  2  1  0
  2  3  1  0
  3  4  2  0
  3  5  1  0
  5  6  1  1
  5  7  1  0
  7  8  1  0
  8  9  1  0
  9 10  1  0
 10 11  1  0
 11 12  1  0
 12 13  2  0
 12  7  1  0
M  END
>  <inchikey>  (154) 
QEAIPLSLYLEHLE-UHFFFAOYSA-N

>  <energy_score>  (154) 
-12.63281

>  <subsites>  (154) 
1 - Active Site

>  <alias>  (154) 
C38619-P404

>  <tags>  (154) 
openbind_a71ev2a_c1_scaffolds,BulkDock Fragalysis export,openbind_a71ev2a_c1_knitwork_impure,fragmenstein_placed

>  <distance_score>  (154) 
0.89787

>  <placement_batch>  (154) 
openbind_a71ev2a_c1_knitwork_impure

>  <name>  (154) 
C38619-P404

>  <ref_mols>  (154) 
A4563a,A1779a

>  <smiles>  (154) 
CCC(=O)[C@@H](C)N1CCCCC1=O

>  <HIPPO Compound ID>  (154) 
1328

>  <HIPPO Pose ID>  (154) 
368391

>  <ref_pdb>  (154) 
A5079a

$$$$
C7479-P278
     RDKit          3D

 23 24  0  0  0  0  0  0  0  0999 V2000
    2.2445   11.9678   19.0566 C   0  0  0  0  0  0  0  0  0  0  0  0
    3.4282   12.9104   19.2208 C   0  0  0  0  0  0  0  0  0  0  0  0
    4.0894   13.1266   17.8661 C   0  0  0  0  0  0  0  0  0  0  0  0
    3.0235   14.2172   19.7961 C   0  0  0  0  0  0  0  0  0  0  0  0
    2.0522   14.8858   19.1052 O   0  0  0  0  0  0  0  0  0  0  0  0
    1.9247   16.0597   19.7581 C   0  0  0  0  0  0  0  0  0  0  0  0
    2.7041   16.2069   20.8076 N   0  0  0  0  0  0  0  0  0  0  0  0
    3.3931   15.0050   20.8749 C   0  0  0  0  0  0  0  0  0  0  0  0
    4.3479   14.7170   21.9920 C   0  0  0  0  0  0  0  0  0  0  0  0
    5.5773   15.4653   21.7750 N   0  0  0  0  0  0  0  0  0  0  0  0
    7.0233   14.7446   22.2129 S   0  0  0  0  0  0  0  0  0  0  0  0
    6.8620   13.3759   21.7408 O   0  0  0  0  0  0  0  0  0  0  0  0
    7.9804   15.5344   21.4666 O   0  0  0  0  0  0  0  0  0  0  0  0
    6.9291   14.9347   23.7325 N   0  0  0  0  0  0  0  0  0  0  0  0
    8.2651   14.6217   24.4328 S   0  0  2  0  0  0  0  0  0  0  0  0
    8.0684   15.1892   26.1104 C   0  0  0  0  0  0  0  0  0  0  0  0
    9.5477   15.1434   24.0100 O   0  0  0  0  0  0  0  0  0  0  0  0
    8.4925   12.8426   24.6813 C   0  0  0  0  0  0  0  0  0  0  0  0
    9.3292   12.2256   23.5635 C   0  0  0  0  0  0  0  0  0  0  0  0
    9.4281   10.7048   23.5735 C   0  0  0  0  0  0  0  0  0  0  0  0
    8.2731    9.9208   24.1622 C   0  0  0  0  0  0  0  0  0  0  0  0
    7.3877   10.6378   25.1645 C   0  0  0  0  0  0  0  0  0  0  0  0
    7.1763   12.1107   24.8783 C   0  0  0  0  0  0  0  0  0  0  0  0
  1  2  1  0
  2  3  1  0
  2  4  1  0
  4  5  1  0
  5  6  1  0
  6  7  2  0
  7  8  1  0
  8  9  1  0
  9 10  1  0
 10 11  1  0
 11 12  2  0
 11 13  2  0
 11 14  1  0
 14 15  2  0
 15 16  1  1
 15 17  2  0
 15 18  1  0
 18 19  1  0
 19 20  1  0
 20 21  1  0
 21 22  1  0
 22 23  1  0
  8  4  2  0
 23 18  1  0
M  END
>  <inchikey>  (155) 
NOLYSQFICWENKE-UHFFFAOYSA-N

>  <energy_score>  (155) 
-237.811669

>  <subsites>  (155) 
1 - Active Site

>  <alias>  (155) 
C7479-P278

>  <tags>  (155) 
openbind_a71ev2a_c1_scaffolds,BulkDock Fragalysis export,openbind_a71ev2a_c1_knitwork_impure,fragmenstein_placed

>  <distance_score>  (155) 
0.95954

>  <placement_batch>  (155) 
openbind_a71ev2a_c1_knitwork_impure

>  <name>  (155) 
C7479-P278

>  <ref_mols>  (155) 
A3623a,A4035a

>  <smiles>  (155) 
CC(C)c1ocnc1CNS(=O)(=O)N=[S@](C)(=O)C1CCCCC1

>  <HIPPO Compound ID>  (155) 
13612

>  <HIPPO Pose ID>  (155) 
368424

>  <ref_pdb>  (155) 
A5079a

$$$$
C7646-P322
     RDKit          3D

 13 14  0  0  0  0  0  0  0  0999 V2000
    5.6293   15.6192   22.0424 N   0  0  0  0  0  0  0  0  0  0  0  0
    7.0060   14.7935   22.4995 S   0  0  0  0  0  0  0  0  0  0  0  0
    8.1409   15.5363   22.0165 O   0  0  0  0  0  0  0  0  0  0  0  0
    6.8148   13.4115   22.1232 O   0  0  0  0  0  0  0  0  0  0  0  0
    6.8521   15.0191   24.2810 C   0  0  0  0  0  0  0  0  0  0  0  0
    7.9661   14.3177   25.0391 C   0  0  0  0  0  0  0  0  0  0  0  0
    7.6387   12.8305   25.0929 C   0  0  0  0  0  0  0  0  0  0  0  0
    8.7726   11.9108   25.1087 N   0  0  0  0  0  0  0  0  0  0  0  0
    8.2216   10.5421   25.0365 C   0  0  0  0  0  0  0  0  0  0  0  0
    8.8291    9.8910   23.8588 C   0  0  2  0  0  0  0  0  0  0  0  0
   10.2235    9.4582   23.7181 C   0  0  0  0  0  0  0  0  0  0  0  0
    9.7792   10.8180   23.2293 C   0  0  2  0  0  0  0  0  0  0  0  0
    9.7093   12.0978   23.9744 C   0  0  0  0  0  0  0  0  0  0  0  0
  1  2  1  0
  2  3  2  0
  2  4  2  0
  2  5  1  0
  5  6  1  0
  6  7  1  0
  7  8  1  0
  8  9  1  0
 10  9  1  1
 10 11  1  0
 12 11  1  1
 12 13  1  0
 13  8  1  0
 12 10  1  0
M  END
>  <inchikey>  (156) 
XEWCFUUENPDOSL-UHFFFAOYSA-N

>  <energy_score>  (156) 
-21.843514

>  <subsites>  (156) 
1 - Active Site

>  <alias>  (156) 
C7646-P322

>  <tags>  (156) 
openbind_a71ev2a_c1_scaffolds,BulkDock Fragalysis export,openbind_a71ev2a_c1_knitwork_impure,fragmenstein_placed

>  <distance_score>  (156) 
0.938014

>  <placement_batch>  (156) 
openbind_a71ev2a_c1_knitwork_impure

>  <name>  (156) 
C7646-P322

>  <ref_mols>  (156) 
A4351a,A0719a

>  <smiles>  (156) 
NS(=O)(=O)CCCN1C[C@H]2C[C@H]2C1

>  <HIPPO Compound ID>  (156) 
24648

>  <HIPPO Pose ID>  (156) 
368857

>  <ref_pdb>  (156) 
A5079a

$$$$
C7674-P322
     RDKit          3D

 13 14  0  0  0  0  0  0  0  0999 V2000
    5.4804   15.5813   21.9991 N   0  0  0  0  0  0  0  0  0  0  0  0
    6.8491   14.8051   22.5580 S   0  0  0  0  0  0  0  0  0  0  0  0
    7.9886   15.5513   22.0906 O   0  0  0  0  0  0  0  0  0  0  0  0
    6.7023   13.4069   22.2234 O   0  0  0  0  0  0  0  0  0  0  0  0
    6.5992   15.1078   24.3130 C   0  0  0  0  0  0  0  0  0  0  0  0
    7.6654   14.5035   25.2092 C   0  0  0  0  0  0  0  0  0  0  0  0
    7.5021   12.9876   25.2832 C   0  0  0  0  0  0  0  0  0  0  0  0
    8.7376   12.2554   25.0248 N   0  0  0  0  0  0  0  0  0  0  0  0
    8.4383   10.8155   24.8730 C   0  0  0  0  0  0  0  0  0  0  0  0
    9.4632   10.2340   23.8868 C   0  0  0  0  0  0  0  0  0  0  0  0
   10.0281   11.4091   23.1669 C   0  0  2  0  0  0  0  0  0  0  0  0
   10.9236   12.4887   23.7416 C   0  0  0  0  0  0  0  0  0  0  0  0
    9.4454   12.6256   23.7872 C   0  0  2  0  0  0  0  0  0  0  0  0
  1  2  1  0
  2  3  2  0
  2  4  2  0
  2  5  1  0
  5  6  1  0
  6  7  1  0
  7  8  1  0
  8  9  1  0
  9 10  1  0
 11 10  1  1
 11 12  1  0
 13 12  1  1
 13  8  1  0
 13 11  1  0
M  END
>  <inchikey>  (157) 
ORBZHPMIKIFVPF-UHFFFAOYSA-N

>  <energy_score>  (157) 
-77.522579

>  <subsites>  (157) 
1 - Active Site

>  <alias>  (157) 
C7674-P322

>  <tags>  (157) 
openbind_a71ev2a_c1_scaffolds,BulkDock Fragalysis export,openbind_a71ev2a_c1_knitwork_impure,fragmenstein_placed

>  <distance_score>  (157) 
0.940576

>  <placement_batch>  (157) 
openbind_a71ev2a_c1_knitwork_impure

>  <name>  (157) 
C7674-P322

>  <ref_mols>  (157) 
A4351a,A0719a

>  <smiles>  (157) 
NS(=O)(=O)CCCN1CC[C@@H]2C[C@@H]21

>  <HIPPO Compound ID>  (157) 
6282

>  <HIPPO Pose ID>  (157) 
368872

>  <ref_pdb>  (157) 
A5079a

$$$$
C131129-P120
     RDKit          3D

 16 17  0  0  0  0  0  0  0  0999 V2000
    1.0619    9.2730   30.1808 C   0  0  0  0  0  0  0  0  0  0  0  0
    1.9241   10.0176   29.8064 C   0  0  0  0  0  0  0  0  0  0  0  0
    2.9770   10.9278   29.3473 C   0  0  0  0  0  0  0  0  0  0  0  0
    3.8384   10.2660   28.2786 C   0  0  0  0  0  0  0  0  0  0  0  0
    4.7718   11.2879   27.6589 C   0  0  0  0  0  0  0  0  0  0  0  0
    4.8851   12.3793   28.0644 O   0  0  0  0  0  0  0  0  0  0  0  0
    5.4728   10.5780   26.4623 N   0  0  0  0  0  0  0  0  0  0  0  0
    6.4838   11.0212   25.6168 C   0  0  0  0  0  0  0  0  0  0  0  0
    7.2043   10.1088   24.8366 C   0  0  0  0  0  0  0  0  0  0  0  0
    8.2794   10.5292   24.0445 C   0  0  0  0  0  0  0  0  0  0  0  0
    8.6282   11.8625   24.0677 C   0  0  0  0  0  0  0  0  0  0  0  0
    7.8748   12.7733   24.8008 C   0  0  0  0  0  0  0  0  0  0  0  0
    6.8000   12.3766   25.5728 C   0  0  0  0  0  0  0  0  0  0  0  0
    8.4168   14.1475   24.6048 C   0  0  0  0  0  0  0  0  0  0  0  0
    9.7727   13.8148   23.9576 C   0  0  0  0  0  0  0  0  0  0  0  0
    9.6411   12.4920   23.3257 N   0  0  0  0  0  0  0  0  0  0  0  0
  1  2  3  0
  2  3  1  0
  3  4  1  0
  4  5  1  0
  5  6  2  0
  5  7  1  0
  7  8  1  0
  8  9  2  0
  9 10  1  0
 10 11  2  0
 11 12  1  0
 12 13  2  0
 12 14  1  0
 14 15  1  0
 15 16  1  0
 13  8  1  0
 16 11  1  0
M  END
>  <inchikey>  (158) 
PLIIAKFRJSUEBR-UHFFFAOYSA-N

>  <energy_score>  (158) 
-6.563599

>  <subsites>  (158) 
1 - Active Site

>  <alias>  (158) 
C131129-P120

>  <tags>  (158) 
openbind_a71ev2a_c1_scaffolds,BulkDock Fragalysis export,openbind_a71ev2a_c1_knitwork_impure,fragmenstein_placed

>  <distance_score>  (158) 
0.989514

>  <placement_batch>  (158) 
openbind_a71ev2a_c1_knitwork_impure

>  <name>  (158) 
C131129-P120

>  <ref_mols>  (158) 
A1445a,A1778a

>  <smiles>  (158) 
C#CCCC(=O)Nc1ccc2c(c1)CCN2

>  <HIPPO Compound ID>  (158) 
3842

>  <HIPPO Pose ID>  (158) 
368940

>  <ref_pdb>  (158) 
A5079a

$$$$
C8137-P195
     RDKit          3D

 18 18  0  0  0  0  0  0  0  0999 V2000
   11.3568   15.2057   18.6493 C   0  0  0  0  0  0  0  0  0  0  0  0
   10.4067   16.0179   19.5053 C   0  0  0  0  0  0  0  0  0  0  0  0
   10.6091   15.7768   20.9970 C   0  0  0  0  0  0  0  0  0  0  0  0
    9.5122   14.9396   21.6493 C   0  0  0  0  0  0  0  0  0  0  0  0
    8.1812   15.5838   21.7647 N   0  0  0  0  0  0  0  0  0  0  0  0
    8.1747   16.9875   22.1937 C   0  0  0  0  0  0  0  0  0  0  0  0
    6.8748   14.6891   22.3114 S   0  0  0  0  0  0  0  0  0  0  0  0
    7.0076   13.3114   21.9155 O   0  0  0  0  0  0  0  0  0  0  0  0
    5.6579   15.3987   21.9876 O   0  0  0  0  0  0  0  0  0  0  0  0
    6.9882   14.7473   23.9726 N   0  0  0  0  0  0  0  0  0  0  0  0
    8.1476   14.3363   24.7918 C   0  0  1  0  0  0  0  0  0  0  0  0
    7.8732   14.9191   26.1926 C   0  0  0  0  0  0  0  0  0  0  0  0
    8.4166   12.8091   24.8981 C   0  0  0  0  0  0  0  0  0  0  0  0
    7.1506   11.9986   25.1644 C   0  0  0  0  0  0  0  0  0  0  0  0
    7.4146   10.5051   25.1803 C   0  0  0  0  0  0  0  0  0  0  0  0
    8.0182   10.0767   23.9455 N   0  0  0  0  0  0  0  0  0  0  0  0
    9.2715   10.7085   23.6140 C   0  0  0  0  0  0  0  0  0  0  0  0
    9.2609   12.2306   23.7498 C   0  0  0  0  0  0  0  0  0  0  0  0
  1  2  1  0
  2  3  1  0
  3  4  1  0
  4  5  1  0
  5  6  1  0
  5  7  1  0
  7  8  2  0
  7  9  2  0
  7 10  1  0
 10 11  1  0
 11 12  1  1
 11 13  1  0
 13 14  1  0
 14 15  1  0
 15 16  1  0
 16 17  1  0
 17 18  1  0
 18 13  1  0
M  END
>  <inchikey>  (159) 
FKUJMGDPPLMJGR-UHFFFAOYSA-N

>  <energy_score>  (159) 
-53.060248

>  <subsites>  (159) 
1 - Active Site

>  <alias>  (159) 
C8137-P195

>  <tags>  (159) 
openbind_a71ev2a_c1_scaffolds,BulkDock Fragalysis export,openbind_a71ev2a_c1_knitwork_impure,fragmenstein_placed

>  <distance_score>  (159) 
0.902108

>  <placement_batch>  (159) 
openbind_a71ev2a_c1_knitwork_impure

>  <name>  (159) 
C8137-P195

>  <ref_mols>  (159) 
A3612a,A0719a

>  <smiles>  (159) 
CCCCN(C)S(=O)(=O)N[C@@H](C)C1CCNCC1

>  <HIPPO Compound ID>  (159) 
31893

>  <HIPPO Pose ID>  (159) 
369045

>  <ref_pdb>  (159) 
A5079a

$$$$
C8169-P195
     RDKit          3D

 14 14  0  0  0  0  0  0  0  0999 V2000
    7.7595   13.1040   22.4199 O   0  0  0  0  0  0  0  0  0  0  0  0
    8.8767   13.3066   23.3132 S   0  0  0  0  0  0  0  0  0  0  0  0
    9.9236   12.3376   23.5172 O   0  0  0  0  0  0  0  0  0  0  0  0
    8.1474   13.5601   24.8070 N   0  0  0  0  0  0  0  0  0  0  0  0
    7.5306   12.3389   25.3586 C   0  0  0  0  0  0  0  0  0  0  0  0
    6.3405   12.7589   26.2084 C   0  0  0  0  0  0  0  0  0  0  0  0
    5.8509   11.6895   27.1626 C   0  0  0  0  0  0  0  0  0  0  0  0
    5.8313   10.0825   26.4406 Cl  0  0  0  0  0  0  0  0  0  0  0  0
    9.4705   14.8517   23.1313 N   0  0  0  0  0  0  0  0  0  0  0  0
   10.6939   15.2389   23.8495 C   0  0  0  0  0  0  0  0  0  0  0  0
   11.9136   15.0683   22.9550 C   0  0  0  0  0  0  0  0  0  0  0  0
   11.7523   15.8389   21.6475 C   0  0  0  0  0  0  0  0  0  0  0  0
   10.4730   15.4124   20.9372 C   0  0  0  0  0  0  0  0  0  0  0  0
    9.2648   15.5685   21.8488 C   0  0  0  0  0  0  0  0  0  0  0  0
  1  2  2  0
  2  3  2  0
  2  4  1  0
  4  5  1  0
  5  6  1  0
  6  7  1  0
  7  8  1  0
  2  9  1  0
  9 10  1  0
 10 11  1  0
 11 12  1  0
 12 13  1  0
 13 14  1  0
 14  9  1  0
M  END
>  <inchikey>  (160) 
VLTCJSKEHQAUTL-UHFFFAOYSA-N

>  <energy_score>  (160) 
-46.754232

>  <subsites>  (160) 
1 - Active Site

>  <alias>  (160) 
C8169-P195

>  <tags>  (160) 
openbind_a71ev2a_c1_scaffolds,BulkDock Fragalysis export,openbind_a71ev2a_c1_knitwork_impure,fragmenstein_placed

>  <distance_score>  (160) 
0.918218

>  <placement_batch>  (160) 
openbind_a71ev2a_c1_knitwork_impure

>  <name>  (160) 
C8169-P195

>  <ref_mols>  (160) 
A3612a,A0719a

>  <smiles>  (160) 
O=S(=O)(NCCCCl)N1CCCCC1

>  <HIPPO Compound ID>  (160) 
2636

>  <HIPPO Pose ID>  (160) 
369063

>  <ref_pdb>  (160) 
A5079a

$$$$
C9144-P234
     RDKit          3D

 13 13  0  0  0  0  0  0  0  0999 V2000
   11.5580   15.2328   24.6131 O   0  0  0  0  0  0  0  0  0  0  0  0
   11.0586   15.1678   23.5000 C   0  0  0  0  0  0  0  0  0  0  0  0
   11.7131   15.5940   22.2082 C   0  0  0  0  0  0  0  0  0  0  0  0
   10.8495   14.9241   21.1522 C   0  0  0  0  0  0  0  0  0  0  0  0
    9.4795   14.8411   21.7968 C   0  0  0  0  0  0  0  0  0  0  0  0
    9.7725   14.7477   23.2082 N   0  0  0  0  0  0  0  0  0  0  0  0
    8.7746   14.3895   24.2060 C   0  0  0  0  0  0  0  0  0  0  0  0
    8.6481   12.8861   24.4327 C   0  0  0  0  0  0  0  0  0  0  0  0
    9.4839   12.0770   24.0155 O   0  0  0  0  0  0  0  0  0  0  0  0
    7.4351   12.4747   25.2606 C   0  0  0  0  0  0  0  0  0  0  0  0
    6.3229   13.1435   24.8743 F   0  0  0  0  0  0  0  0  0  0  0  0
    7.1706   11.1436   25.1721 F   0  0  0  0  0  0  0  0  0  0  0  0
    7.5500   12.7357   26.5921 F   0  0  0  0  0  0  0  0  0  0  0  0
  1  2  2  0
  2  3  1  0
  3  4  1  0
  4  5  1  0
  5  6  1  0
  6  7  1  0
  7  8  1  0
  8  9  2  0
  8 10  1  0
 10 11  1  0
 10 12  1  0
 10 13  1  0
  6  2  1  0
M  END
>  <inchikey>  (161) 
PVHTYTCVYUNLLL-UHFFFAOYSA-N

>  <energy_score>  (161) 
-22.905459

>  <subsites>  (161) 
1 - Active Site

>  <alias>  (161) 
C9144-P234

>  <tags>  (161) 
openbind_a71ev2a_c1_scaffolds,BulkDock Fragalysis export,openbind_a71ev2a_c1_knitwork_impure,fragmenstein_placed

>  <distance_score>  (161) 
0.632919

>  <placement_batch>  (161) 
openbind_a71ev2a_c1_knitwork_impure

>  <name>  (161) 
C9144-P234

>  <ref_mols>  (161) 
A3895a,A1775a

>  <smiles>  (161) 
O=C1CCCN1CC(=O)C(F)(F)F

>  <HIPPO Compound ID>  (161) 
28383

>  <HIPPO Pose ID>  (161) 
369312

>  <ref_pdb>  (161) 
A5079a

$$$$
C7620-P229
     RDKit          3D

 15 16  0  0  0  0  0  0  0  0999 V2000
   11.9303   15.1742   23.8237 C   0  0  0  0  0  0  0  0  0  0  0  0
   11.6346   14.0710   22.8321 C   0  0  0  0  0  0  0  0  0  0  0  0
   10.2016   14.0801   22.3364 C   0  0  0  0  0  0  0  0  0  0  0  0
    8.9687   13.5228   23.4902 S   0  0  0  0  0  0  0  0  0  0  0  0
    7.8657   12.9811   22.7255 O   0  0  0  0  0  0  0  0  0  0  0  0
    8.7696   14.5613   24.4797 O   0  0  0  0  0  0  0  0  0  0  0  0
    9.7537   12.2695   24.3227 N   0  0  0  0  0  0  0  0  0  0  0  0
    9.0230   10.9669   24.4389 C   0  0  0  0  0  0  0  0  0  0  0  0
    8.0295   10.9186   25.5957 C   0  0  1  0  0  0  0  0  0  0  0  0
    7.0241   12.0335   25.7401 C   0  0  0  0  0  0  0  0  0  0  0  0
    6.0109   11.4703   26.7140 C   0  0  0  0  0  0  0  0  0  0  0  0
    6.0737    9.9671   26.5285 C   0  0  0  0  0  0  0  0  0  0  0  0
    7.2907    9.6680   25.7741 N   0  0  0  0  0  0  0  0  0  0  0  0
    9.0164   10.0784   23.2046 C   0  0  0  0  0  0  0  0  0  0  0  0
    9.8310    9.6683   24.3268 C   0  0  0  0  0  0  0  0  0  0  0  0
  1  2  1  0
  2  3  1  0
  3  4  1  0
  4  5  2  0
  4  6  2  0
  4  7  1  0
  7  8  1  0
  9  8  1  6
  9 10  1  0
 10 11  1  0
 11 12  1  0
 12 13  1  0
  8 14  1  0
 14 15  1  0
 15  8  1  0
 13  9  1  0
M  END
>  <inchikey>  (162) 
YIILFKIQHWPXAG-UHFFFAOYSA-N

>  <energy_score>  (162) 
-55.990724

>  <subsites>  (162) 
1 - Active Site

>  <alias>  (162) 
C7620-P229

>  <tags>  (162) 
openbind_a71ev2a_c1_scaffolds,BulkDock Fragalysis export,openbind_a71ev2a_c1_knitwork_impure,fragmenstein_placed

>  <distance_score>  (162) 
0.989509

>  <placement_batch>  (162) 
openbind_a71ev2a_c1_knitwork_impure

>  <name>  (162) 
C7620-P229

>  <ref_mols>  (162) 
A3869a,A0719a

>  <smiles>  (162) 
CCCS(=O)(=O)NC1([C@H]2CCCN2)CC1

>  <HIPPO Compound ID>  (162) 
7169

>  <HIPPO Pose ID>  (162) 
369560

>  <ref_pdb>  (162) 
A5079a

$$$$
C8903-P457
     RDKit          3D

 19 21  0  0  0  0  0  0  0  0999 V2000
    9.3655   13.9912   25.5861 O   0  0  0  0  0  0  0  0  0  0  0  0
    8.5155   13.6105   24.7807 C   0  0  0  0  0  0  0  0  0  0  0  0
    8.2615   14.2724   23.4360 C   0  0  0  0  0  0  0  0  0  0  0  0
    9.3986   14.1650   22.4980 N   0  0  0  0  0  0  0  0  0  0  0  0
   10.6896   14.4952   23.1237 C   0  0  0  0  0  0  0  0  0  0  0  0
   11.8429   14.4357   22.1322 C   0  0  0  0  0  0  0  0  0  0  0  0
   11.6002   15.3377   20.9415 C   0  0  0  0  0  0  0  0  0  0  0  0
   10.2412   15.0670   20.3184 C   0  0  0  0  0  0  0  0  0  0  0  0
    9.1390   15.0961   21.3731 C   0  0  0  0  0  0  0  0  0  0  0  0
    7.6097   12.5327   25.2057 C   0  0  0  0  0  0  0  0  0  0  0  0
    7.6872   11.2581   24.6565 C   0  0  0  0  0  0  0  0  0  0  0  0
    6.8475   10.2565   25.1568 C   0  0  0  0  0  0  0  0  0  0  0  0
    5.9466   10.5102   26.2058 C   0  0  0  0  0  0  0  0  0  0  0  0
    5.8617   11.8146   26.7225 C   0  0  0  0  0  0  0  0  0  0  0  0
    6.7124   12.8144   26.2364 C   0  0  0  0  0  0  0  0  0  0  0  0
    4.9312   12.1420   27.8628 C   0  0  0  0  0  0  0  0  0  0  0  0
    3.8427   11.0927   28.0390 C   0  0  0  0  0  0  0  0  0  0  0  0
    4.4496    9.7041   27.9400 C   0  0  0  0  0  0  0  0  0  0  0  0
    5.0573    9.5094   26.6281 N   0  0  0  0  0  0  0  0  0  0  0  0
  1  2  2  0
  2  3  1  0
  3  4  1  0
  4  5  1  0
  5  6  1  0
  6  7  1  0
  7  8  1  0
  8  9  1  0
  2 10  1  0
 10 11  2  0
 11 12  1  0
 12 13  2  0
 13 14  1  0
 14 15  2  0
 14 16  1  0
 16 17  1  0
 17 18  1  0
 18 19  1  0
  9  4  1  0
 15 10  1  0
 19 13  1  0
M  END
>  <inchikey>  (163) 
FEWUTFMHYWVVGO-UHFFFAOYSA-N

>  <energy_score>  (163) 
-33.671846

>  <subsites>  (163) 
1 - Active Site

>  <alias>  (163) 
C8903-P457

>  <tags>  (163) 
openbind_a71ev2a_c1_scaffolds,BulkDock Fragalysis export,openbind_a71ev2a_c1_knitwork_impure,fragmenstein_placed

>  <distance_score>  (163) 
0.880909

>  <placement_batch>  (163) 
openbind_a71ev2a_c1_knitwork_impure

>  <name>  (163) 
C8903-P457

>  <ref_mols>  (163) 
A4751a,A1778a

>  <smiles>  (163) 
O=C(CN1CCCCC1)c1ccc2c(c1)CCCN2

>  <HIPPO Compound ID>  (163) 
7673

>  <HIPPO Pose ID>  (163) 
369840

>  <ref_pdb>  (163) 
A5079a

$$$$
C1414-P457
     RDKit          3D

 15 15  0  0  0  0  0  0  0  0999 V2000
   11.1012   15.1158   19.7081 C   0  0  0  0  0  0  0  0  0  0  0  0
   12.0147   14.7025   20.8464 C   0  0  0  0  0  0  0  0  0  0  0  0
   11.3174   14.2548   22.1334 C   0  0  0  0  0  0  0  0  0  0  0  0
   10.5235   15.3705   22.8112 C   0  0  0  0  0  0  0  0  0  0  0  0
    8.9973   15.1797   22.8371 C   0  0  1  0  0  0  0  0  0  0  0  0
    8.3816   15.1274   21.4585 C   0  0  0  0  0  0  0  0  0  0  0  0
    8.5560   14.0598   23.6403 N   0  0  0  0  0  0  0  0  0  0  0  0
    9.2713   13.2960   24.7730 C   0  0  0  0  0  0  0  0  0  0  0  0
   10.2976   13.4968   25.2895 O   0  0  0  0  0  0  0  0  0  0  0  0
    8.3771   12.1370   25.2162 C   0  0  0  0  0  0  0  0  0  0  0  0
    8.2329   11.0640   24.1483 C   0  0  0  0  0  0  0  0  0  0  0  0
    7.4958    9.8714   24.7380 C   0  0  0  0  0  0  0  0  0  0  0  0
    6.1976   10.2294   25.3086 N   0  0  0  0  0  0  0  0  0  0  0  0
    6.2709   11.3139   26.2848 C   0  0  0  0  0  0  0  0  0  0  0  0
    6.9986   12.5442   25.7394 C   0  0  0  0  0  0  0  0  0  0  0  0
  1  2  1  0
  2  3  1  0
  3  4  1  0
  4  5  1  0
  5  6  1  6
  5  7  1  0
  7  8  1  0
  8  9  2  0
  8 10  1  0
 10 11  1  0
 11 12  1  0
 12 13  1  0
 13 14  1  0
 14 15  1  0
 15 10  1  0
M  END
>  <inchikey>  (164) 
XANBFXMPGDEVBY-UHFFFAOYSA-N

>  <energy_score>  (164) 
-13.738986

>  <subsites>  (164) 
1 - Active Site,5 - A3181/A/202/1

>  <alias>  (164) 
C1414-P457

>  <tags>  (164) 
openbind_a71ev2a_c1_scaffolds,BulkDock Fragalysis export,openbind_a71ev2a_c1_knitwork_impure,fragmenstein_placed

>  <distance_score>  (164) 
0.993129

>  <placement_batch>  (164) 
openbind_a71ev2a_c1_knitwork_impure

>  <name>  (164) 
C1414-P457

>  <ref_mols>  (164) 
A4751a,A3181b,A1778a

>  <smiles>  (164) 
CCCC[C@@H](C)NC(=O)C1CCNCC1

>  <HIPPO Compound ID>  (164) 
2652

>  <HIPPO Pose ID>  (164) 
369865

>  <ref_pdb>  (164) 
A5079a

$$$$
C2382-P308
     RDKit          3D

 15 15  0  0  0  0  0  0  0  0999 V2000
    8.8302   10.3065   24.4004 C   0  0  0  0  0  0  0  0  0  0  0  0
    7.9477   11.0701   25.3800 C   0  0  0  0  0  0  0  0  0  0  0  0
    6.6898   10.2580   25.6633 C   0  0  0  0  0  0  0  0  0  0  0  0
    7.5275   12.4878   24.9790 C   0  0  0  0  0  0  0  0  0  0  0  0
    8.6671   13.4851   24.7761 C   0  0  0  0  0  0  0  0  0  0  0  0
    9.3029   13.8269   25.7847 O   0  0  0  0  0  0  0  0  0  0  0  0
    9.0402   13.9354   23.2982 C   0  0  0  0  0  0  0  0  0  0  0  0
    7.7825   13.9329   22.4148 C   0  0  0  0  0  0  0  0  0  0  0  0
   10.0096   12.8763   22.7785 C   0  0  0  0  0  0  0  0  0  0  0  0
    9.6305   15.3064   23.3175 N   0  0  0  0  0  0  0  0  0  0  0  0
   10.9995   15.4166   23.8376 C   0  0  0  0  0  0  0  0  0  0  0  0
   12.1110   15.1751   22.8117 C   0  0  0  0  0  0  0  0  0  0  0  0
   11.9251   15.9621   21.5237 C   0  0  0  0  0  0  0  0  0  0  0  0
   10.5092   15.8177   20.9874 C   0  0  0  0  0  0  0  0  0  0  0  0
    9.5025   16.1243   22.0926 C   0  0  0  0  0  0  0  0  0  0  0  0
  1  2  1  0
  2  3  1  0
  2  4  1  0
  4  5  1  0
  5  6  2  0
  5  7  1  0
  7  8  1  0
  7  9  1  0
  7 10  1  0
 10 11  1  0
 11 12  1  0
 12 13  1  0
 13 14  1  0
 14 15  1  0
 15 10  1  0
M  END
>  <inchikey>  (165) 
AXOVECJXLBLXBH-UHFFFAOYSA-N

>  <energy_score>  (165) 
-34.36724

>  <subsites>  (165) 
1 - Active Site

>  <alias>  (165) 
C2382-P308

>  <tags>  (165) 
openbind_a71ev2a_c1_scaffolds,BulkDock Fragalysis export,openbind_a71ev2a_c1_knitwork_impure,fragmenstein_placed

>  <distance_score>  (165) 
0.994712

>  <placement_batch>  (165) 
openbind_a71ev2a_c1_knitwork_impure

>  <name>  (165) 
C2382-P308

>  <ref_mols>  (165) 
A4331a,A1779a

>  <smiles>  (165) 
CC(C)CC(=O)C(C)(C)N1CCCCC1

>  <HIPPO Compound ID>  (165) 
1318

>  <HIPPO Pose ID>  (165) 
370389

>  <ref_pdb>  (165) 
A5079a

$$$$
C2397-P308
     RDKit          3D

 15 15  0  0  0  0  0  0  0  0999 V2000
   11.4406   15.4870   18.7680 C   0  0  0  0  0  0  0  0  0  0  0  0
   10.3022   15.7729   19.7298 C   0  0  0  0  0  0  0  0  0  0  0  0
   10.1077   17.2367   20.0924 C   0  0  0  0  0  0  0  0  0  0  0  0
   10.5337   15.0091   21.0196 C   0  0  0  0  0  0  0  0  0  0  0  0
    9.2663   14.9605   21.8354 C   0  0  0  0  0  0  0  0  0  0  0  0
    9.6092   14.2863   23.0255 O   0  0  0  0  0  0  0  0  0  0  0  0
    8.4507   13.8291   23.6941 C   0  0  0  0  0  0  0  0  0  0  0  0
    8.9610   13.1501   24.9485 C   0  0  1  0  0  0  0  0  0  0  0  0
    9.5655   14.1886   25.9127 C   0  0  0  0  0  0  0  0  0  0  0  0
    7.8800   12.3035   25.6104 C   0  0  1  0  0  0  0  0  0  0  0  0
    6.6771   13.1168   26.1115 C   0  0  0  0  0  0  0  0  0  0  0  0
    5.7353   12.2548   26.9363 C   0  0  0  0  0  0  0  0  0  0  0  0
    5.4383   10.9492   26.2271 C   0  0  0  0  0  0  0  0  0  0  0  0
    6.6394   10.2816   25.5724 C   0  0  0  0  0  0  0  0  0  0  0  0
    7.4107   11.2089   24.7520 N   0  0  0  0  0  0  0  0  0  0  0  0
  1  2  1  0
  2  3  1  0
  2  4  1  0
  4  5  1  0
  5  6  1  0
  6  7  1  0
  7  8  1  0
  8  9  1  1
  8 10  1  0
 10 11  1  6
 11 12  1  0
 12 13  1  0
 13 14  1  0
 14 15  1  0
 15 10  1  0
M  END
>  <inchikey>  (166) 
QENDPRIYXYIRHV-UHFFFAOYSA-N

>  <energy_score>  (166) 
-33.191837

>  <subsites>  (166) 
1 - Active Site

>  <alias>  (166) 
C2397-P308

>  <tags>  (166) 
openbind_a71ev2a_c1_scaffolds,BulkDock Fragalysis export,openbind_a71ev2a_c1_knitwork_impure,fragmenstein_placed

>  <distance_score>  (166) 
0.885375

>  <placement_batch>  (166) 
openbind_a71ev2a_c1_knitwork_impure

>  <name>  (166) 
C2397-P308

>  <ref_mols>  (166) 
A4331a,A1779a

>  <smiles>  (166) 
CC(C)CCOC[C@@H](C)[C@H]1CCCCN1

>  <HIPPO Compound ID>  (166) 
3826

>  <HIPPO Pose ID>  (166) 
370399

>  <ref_pdb>  (166) 
A5079a

$$$$
C2401-P308
     RDKit          3D

 15 15  0  0  0  0  0  0  0  0999 V2000
    8.7847   14.5722   25.8737 C   0  0  0  0  0  0  0  0  0  0  0  0
    8.6053   13.6873   24.7247 N   0  0  0  0  0  0  0  0  0  0  0  0
    8.4023   14.4216   23.4590 C   0  0  0  0  0  0  0  0  0  0  0  0
    9.5337   15.3845   23.1046 C   0  0  0  0  0  0  0  0  0  0  0  0
    9.6411   15.4717   21.6840 O   0  0  0  0  0  0  0  0  0  0  0  0
   10.9740   15.3443   21.1650 C   0  0  0  0  0  0  0  0  0  0  0  0
   11.8701   16.4646   21.6777 C   0  0  0  0  0  0  0  0  0  0  0  0
   10.8755   15.4666   19.6420 C   0  0  0  0  0  0  0  0  0  0  0  0
   11.5562   13.9897   21.5609 C   0  0  0  0  0  0  0  0  0  0  0  0
    7.5335   12.6852   24.8740 C   0  0  1  0  0  0  0  0  0  0  0  0
    8.1839   11.3623   25.2736 C   0  0  0  0  0  0  0  0  0  0  0  0
    7.1277   10.2773   25.3122 C   0  0  0  0  0  0  0  0  0  0  0  0
    5.8936   10.6480   26.1270 C   0  0  0  0  0  0  0  0  0  0  0  0
    5.3310   11.9601   25.8217 N   0  0  0  0  0  0  0  0  0  0  0  0
    6.3587   13.0083   25.8300 C   0  0  0  0  0  0  0  0  0  0  0  0
  1  2  1  0
  2  3  1  0
  3  4  1  0
  4  5  1  0
  5  6  1  0
  6  7  1  0
  6  8  1  0
  6  9  1  0
 10  2  1  1
 10 11  1  0
 11 12  1  0
 12 13  1  0
 13 14  1  0
 14 15  1  0
 15 10  1  0
M  END
>  <inchikey>  (167) 
WYQDXWYIGKTVHX-UHFFFAOYSA-N

>  <energy_score>  (167) 
-54.024148

>  <subsites>  (167) 
1 - Active Site

>  <alias>  (167) 
C2401-P308

>  <tags>  (167) 
openbind_a71ev2a_c1_scaffolds,BulkDock Fragalysis export,openbind_a71ev2a_c1_knitwork_impure,fragmenstein_placed

>  <distance_score>  (167) 
0.969224

>  <placement_batch>  (167) 
openbind_a71ev2a_c1_knitwork_impure

>  <name>  (167) 
C2401-P308

>  <ref_mols>  (167) 
A4331a,A1779a

>  <smiles>  (167) 
CN(CCOC(C)(C)C)[C@H]1CCCNC1

>  <HIPPO Compound ID>  (167) 
92775

>  <HIPPO Pose ID>  (167) 
370403

>  <ref_pdb>  (167) 
A5079a

$$$$
C2408-P308
     RDKit          3D

 15 15  0  0  0  0  0  0  0  0999 V2000
    9.1942   10.0478   24.4200 C   0  0  0  0  0  0  0  0  0  0  0  0
    7.9057   10.8498   24.5315 C   0  0  0  0  0  0  0  0  0  0  0  0
    7.9784   12.0799   25.4325 C   0  0  2  0  0  0  0  0  0  0  0  0
    6.5803   12.4953   25.9043 C   0  0  0  0  0  0  0  0  0  0  0  0
    8.7569   13.3577   25.0178 C   0  0  0  0  0  0  0  0  0  0  0  0
    9.2196   14.0267   25.9584 O   0  0  0  0  0  0  0  0  0  0  0  0
    8.9266   13.7832   23.4973 C   0  0  0  0  0  0  0  0  0  0  0  0
    7.5350   13.8091   22.8436 C   0  0  0  0  0  0  0  0  0  0  0  0
    9.8479   12.7617   22.8386 C   0  0  0  0  0  0  0  0  0  0  0  0
    9.5319   15.1524   23.3967 N   0  0  0  0  0  0  0  0  0  0  0  0
   10.9077   15.3095   23.8862 C   0  0  0  0  0  0  0  0  0  0  0  0
   12.0070   15.1052   22.8409 C   0  0  0  0  0  0  0  0  0  0  0  0
   11.7813   15.9283   21.5846 C   0  0  0  0  0  0  0  0  0  0  0  0
   10.3761   15.7131   21.0476 C   0  0  0  0  0  0  0  0  0  0  0  0
    9.3358   15.9201   22.1491 C   0  0  0  0  0  0  0  0  0  0  0  0
  1  2  1  0
  2  3  1  0
  3  4  1  6
  3  5  1  0
  5  6  2  0
  5  7  1  0
  7  8  1  0
  7  9  1  0
  7 10  1  0
 10 11  1  0
 11 12  1  0
 12 13  1  0
 13 14  1  0
 14 15  1  0
 15 10  1  0
M  END
>  <inchikey>  (168) 
AQHJQVUQKSJLJN-UHFFFAOYSA-N

>  <energy_score>  (168) 
-47.789211

>  <subsites>  (168) 
1 - Active Site

>  <alias>  (168) 
C2408-P308

>  <tags>  (168) 
openbind_a71ev2a_c1_scaffolds,BulkDock Fragalysis export,openbind_a71ev2a_c1_knitwork_impure,fragmenstein_placed

>  <distance_score>  (168) 
0.85298

>  <placement_batch>  (168) 
openbind_a71ev2a_c1_knitwork_impure

>  <name>  (168) 
C2408-P308

>  <ref_mols>  (168) 
A4331a,A1779a

>  <smiles>  (168) 
CC[C@H](C)C(=O)C(C)(C)N1CCCCC1

>  <HIPPO Compound ID>  (168) 
9910

>  <HIPPO Pose ID>  (168) 
370407

>  <ref_pdb>  (168) 
A5079a

$$$$
C2410-P308
     RDKit          3D

 14 14  0  0  0  0  0  0  0  0999 V2000
   11.9568   15.7234   22.2238 C   0  0  0  0  0  0  0  0  0  0  0  0
   11.1480   14.9675   23.2505 C   0  0  0  0  0  0  0  0  0  0  0  0
   11.8976   13.9249   23.7009 F   0  0  0  0  0  0  0  0  0  0  0  0
   10.9144   15.7706   24.3146 F   0  0  0  0  0  0  0  0  0  0  0  0
    9.8446   14.4618   22.6512 C   0  0  0  0  0  0  0  0  0  0  0  0
    9.1937   13.3351   23.4444 C   0  0  0  0  0  0  0  0  0  0  0  0
    8.3908   13.7952   24.6489 C   0  0  2  0  0  0  0  0  0  0  0  0
    9.2197   14.3975   25.5569 F   0  0  0  0  0  0  0  0  0  0  0  0
    7.7019   12.6441   25.4083 C   0  0  1  0  0  0  0  0  0  0  0  0
    6.4440   13.2179   26.0829 C   0  0  0  0  0  0  0  0  0  0  0  0
    5.7267   12.2069   26.9593 C   0  0  0  0  0  0  0  0  0  0  0  0
    5.5963   10.8645   26.2652 C   0  0  0  0  0  0  0  0  0  0  0  0
    6.8521   10.4086   25.5406 C   0  0  0  0  0  0  0  0  0  0  0  0
    7.3570   11.4389   24.6361 N   0  0  0  0  0  0  0  0  0  0  0  0
  1  2  1  0
  2  3  1  0
  2  4  1  0
  2  5  1  0
  5  6  1  0
  6  7  1  0
  7  8  1  1
  7  9  1  0
  9 10  1  6
 10 11  1  0
 11 12  1  0
 12 13  1  0
 13 14  1  0
 14  9  1  0
M  END
>  <inchikey>  (169) 
QZNTZLREQHIPTH-UHFFFAOYSA-N

>  <energy_score>  (169) 
-38.957153

>  <subsites>  (169) 
1 - Active Site

>  <alias>  (169) 
C2410-P308

>  <tags>  (169) 
openbind_a71ev2a_c1_scaffolds,BulkDock Fragalysis export,openbind_a71ev2a_c1_knitwork_impure,fragmenstein_placed

>  <distance_score>  (169) 
0.995442

>  <placement_batch>  (169) 
openbind_a71ev2a_c1_knitwork_impure

>  <name>  (169) 
C2410-P308

>  <ref_mols>  (169) 
A4331a,A1779a

>  <smiles>  (169) 
CC(F)(F)CC[C@H](F)[C@H]1CCCCN1

>  <HIPPO Compound ID>  (169) 
805

>  <HIPPO Pose ID>  (169) 
370409

>  <ref_pdb>  (169) 
A5079a

$$$$
C2413-P308
     RDKit          3D

 15 15  0  0  0  0  0  0  0  0999 V2000
    7.5392   14.2899   22.6416 C   0  0  0  0  0  0  0  0  0  0  0  0
    8.6301   14.3044   23.4403 C   0  0  0  0  0  0  0  0  0  0  0  0
    9.8034   15.1645   23.0699 C   0  0  0  0  0  0  0  0  0  0  0  0
   11.0020   14.6197   23.3836 F   0  0  0  0  0  0  0  0  0  0  0  0
    9.8322   15.4554   21.7449 F   0  0  0  0  0  0  0  0  0  0  0  0
    9.7436   16.3492   23.7308 F   0  0  0  0  0  0  0  0  0  0  0  0
    8.8283   13.5119   24.7325 C   0  0  2  0  0  0  0  0  0  0  0  0
    9.1689   14.4139   25.9294 C   0  0  0  0  0  0  0  0  0  0  0  0
    9.9410   12.7106   24.5599 F   0  0  0  0  0  0  0  0  0  0  0  0
    7.6451   12.5241   25.0353 C   0  0  2  0  0  0  0  0  0  0  0  0
    6.5151   13.1090   25.8964 C   0  0  0  0  0  0  0  0  0  0  0  0
    5.3518   12.1348   26.0785 C   0  0  0  0  0  0  0  0  0  0  0  0
    5.7790   10.6829   26.2755 C   0  0  0  0  0  0  0  0  0  0  0  0
    7.0161   10.2830   25.4840 C   0  0  0  0  0  0  0  0  0  0  0  0
    8.0853   11.2596   25.6552 N   0  0  0  0  0  0  0  0  0  0  0  0
  1  2  2  0
  2  3  1  0
  3  4  1  0
  3  5  1  0
  3  6  1  0
  2  7  1  0
  7  8  1  1
  7  9  1  0
  7 10  1  0
 10 11  1  1
 11 12  1  0
 12 13  1  0
 13 14  1  0
 14 15  1  0
 15 10  1  0
M  END
>  <inchikey>  (170) 
JSYRTCNAAWDFHA-UHFFFAOYSA-N

>  <energy_score>  (170) 
-20.777392

>  <subsites>  (170) 
1 - Active Site

>  <alias>  (170) 
C2413-P308

>  <tags>  (170) 
openbind_a71ev2a_c1_scaffolds,BulkDock Fragalysis export,openbind_a71ev2a_c1_knitwork_impure,fragmenstein_placed

>  <distance_score>  (170) 
0.776289

>  <placement_batch>  (170) 
openbind_a71ev2a_c1_knitwork_impure

>  <name>  (170) 
C2413-P308

>  <ref_mols>  (170) 
A4331a,A1779a

>  <smiles>  (170) 
C=C(C(F)(F)F)[C@](C)(F)[C@@H]1CCCCN1

>  <HIPPO Compound ID>  (170) 
4545

>  <HIPPO Pose ID>  (170) 
370411

>  <ref_pdb>  (170) 
A5079a

$$$$
C4781-P264
     RDKit          3D

 10 11  0  0  0  0  0  0  0  0999 V2000
    6.9557   12.8957   25.4369 C   0  0  0  0  0  0  0  0  0  0  0  0
    6.9379   11.5618   25.3440 C   0  0  0  0  0  0  0  0  0  0  0  0
    7.7662   10.7123   24.5739 C   0  0  0  0  0  0  0  0  0  0  0  0
    8.7419   11.1384   23.6386 C   0  0  0  0  0  0  0  0  0  0  0  0
    9.2507    9.9826   23.1074 C   0  0  0  0  0  0  0  0  0  0  0  0
    8.6267    8.9682   23.7530 N   0  0  0  0  0  0  0  0  0  0  0  0
    7.7112    9.3779   24.6435 N   0  0  0  0  0  0  0  0  0  0  0  0
    5.8689   10.9477   26.1870 C   0  0  0  0  0  0  0  0  0  0  0  0
    5.0455   12.1573   26.6201 C   0  0  0  0  0  0  0  0  0  0  0  0
    5.9155   13.3882   26.3793 C   0  0  0  0  0  0  0  0  0  0  0  0
  1  2  2  0
  2  3  1  0
  3  4  1  0
  4  5  2  0
  5  6  1  0
  6  7  1  0
  2  8  1  0
  8  9  1  0
  9 10  1  0
 10  1  1  0
  7  3  2  0
M  END
>  <inchikey>  (171) 
GHUWQZDUXFABRG-UHFFFAOYSA-N

>  <energy_score>  (171) 
-11.518514

>  <subsites>  (171) 
1 - Active Site

>  <alias>  (171) 
C4781-P264

>  <tags>  (171) 
openbind_a71ev2a_c1_scaffolds,BulkDock Fragalysis export,openbind_a71ev2a_c1_knitwork_impure,fragmenstein_placed

>  <distance_score>  (171) 
0.835748

>  <placement_batch>  (171) 
openbind_a71ev2a_c1_knitwork_impure

>  <name>  (171) 
C4781-P264

>  <ref_mols>  (171) 
A4012a,A0556a

>  <smiles>  (171) 
C1=C(c2cc[nH]n2)CCC1

>  <HIPPO Compound ID>  (171) 
88601

>  <HIPPO Pose ID>  (171) 
371569

>  <ref_pdb>  (171) 
A4746a

$$$$
C6791-P185
     RDKit          3D

 12 13  0  0  0  0  0  0  0  0999 V2000
    9.1421   10.4178   23.6062 C   0  0  0  0  0  0  0  0  0  0  0  0
    9.5115   11.6762   23.1794 C   0  0  0  0  0  0  0  0  0  0  0  0
    8.9068   12.7587   23.7828 C   0  0  0  0  0  0  0  0  0  0  0  0
    9.2864   14.0596   23.5213 N   0  0  0  0  0  0  0  0  0  0  0  0
    8.7936   14.7506   22.3195 C   0  0  0  0  0  0  0  0  0  0  0  0
    9.8033   14.8107   21.1675 C   0  0  0  0  0  0  0  0  0  0  0  0
   11.4343   15.4607   21.6417 S   0  0  0  0  0  0  0  0  0  0  0  0
   11.7142   14.3921   23.0711 C   0  0  0  0  0  0  0  0  0  0  0  0
   10.5687   14.4875   24.0723 C   0  0  0  0  0  0  0  0  0  0  0  0
    7.9736   12.5797   24.7303 N   0  0  0  0  0  0  0  0  0  0  0  0
    7.6559   11.3195   25.0547 C   0  0  0  0  0  0  0  0  0  0  0  0
    8.2153   10.2119   24.5562 N   0  0  0  0  0  0  0  0  0  0  0  0
  1  2  2  0
  2  3  1  0
  3  4  1  0
  4  5  1  0
  5  6  1  0
  6  7  1  0
  7  8  1  0
  8  9  1  0
  3 10  2  0
 10 11  1  0
 11 12  2  0
 12  1  1  0
  9  4  1  0
M  END
>  <inchikey>  (172) 
KPKROVRQPATTCI-UHFFFAOYSA-N

>  <energy_score>  (172) 
-12.557824

>  <subsites>  (172) 
1 - Active Site

>  <alias>  (172) 
C6791-P185

>  <tags>  (172) 
openbind_a71ev2a_c1_scaffolds,BulkDock Fragalysis export,openbind_a71ev2a_c1_knitwork_impure,fragmenstein_placed

>  <distance_score>  (172) 
0.785251

>  <placement_batch>  (172) 
openbind_a71ev2a_c1_knitwork_impure

>  <name>  (172) 
C6791-P185

>  <ref_mols>  (172) 
A3480a,A1068a

>  <smiles>  (172) 
c1cc(N2CCSCC2)ncn1

>  <HIPPO Compound ID>  (172) 
6181

>  <HIPPO Pose ID>  (172) 
372263

>  <ref_pdb>  (172) 
A4746a

$$$$
C1814-P138
     RDKit          3D

 16 18  0  0  0  0  0  0  0  0999 V2000
    9.6960   13.0422   22.8469 C   0  0  0  0  0  0  0  0  0  0  0  0
    9.3961   11.7723   23.2041 N   0  0  0  0  0  0  0  0  0  0  0  0
    8.5079   11.5981   24.2030 C   0  0  0  0  0  0  0  0  0  0  0  0
    7.9266   12.6591   24.8847 C   0  0  0  0  0  0  0  0  0  0  0  0
    8.2815   13.9552   24.5063 C   0  0  0  0  0  0  0  0  0  0  0  0
    9.1691   14.1719   23.4544 C   0  0  0  0  0  0  0  0  0  0  0  0
    9.5622   15.5854   23.0812 C   0  0  1  0  0  0  0  0  0  0  0  0
   10.9812   15.8954   23.5744 C   0  0  0  0  0  0  0  0  0  0  0  0
   12.0554   15.3838   22.6202 C   0  0  0  0  0  0  0  0  0  0  0  0
   11.7865   15.8220   21.1855 C   0  0  0  0  0  0  0  0  0  0  0  0
   10.4630   15.3962   20.7418 N   0  0  0  0  0  0  0  0  0  0  0  0
    9.4002   15.9359   21.5880 C   0  0  0  0  0  0  0  0  0  0  0  0
    6.9896   12.4695   26.0329 C   0  0  0  0  0  0  0  0  0  0  0  0
    6.3099   11.1174   26.0804 C   0  0  0  0  0  0  0  0  0  0  0  0
    7.1598    9.9584   25.6040 C   0  0  0  0  0  0  0  0  0  0  0  0
    8.1736   10.1775   24.4977 C   0  0  0  0  0  0  0  0  0  0  0  0
  1  2  2  0
  2  3  1  0
  3  4  2  0
  4  5  1  0
  5  6  2  0
  7  6  1  6
  7  8  1  0
  8  9  1  0
  9 10  1  0
 10 11  1  0
 11 12  1  0
  4 13  1  0
 13 14  1  0
 14 15  1  0
 15 16  1  0
  6  1  1  0
 12  7  1  0
 16  3  1  0
M  END
>  <inchikey>  (173) 
KQFIZQJHMHSRJU-UHFFFAOYSA-N

>  <energy_score>  (173) 
-28.299496

>  <subsites>  (173) 
1 - Active Site

>  <alias>  (173) 
C1814-P138

>  <tags>  (173) 
openbind_a71ev2a_c1_scaffolds,BulkDock Fragalysis export,openbind_a71ev2a_c1_knitwork_impure,fragmenstein_placed

>  <distance_score>  (173) 
0.998137

>  <placement_batch>  (173) 
openbind_a71ev2a_c1_knitwork_impure

>  <name>  (173) 
C1814-P138

>  <ref_mols>  (173) 
A3054a,A2629a

>  <smiles>  (173) 
c1nc2c(cc1[C@H]1CCCNC1)CCCC2

>  <HIPPO Compound ID>  (173) 
38623

>  <HIPPO Pose ID>  (173) 
372306

>  <ref_pdb>  (173) 
A4746a

$$$$
C9436-P106
     RDKit          3D

 25 27  0  0  0  0  0  0  0  0999 V2000
   18.5545   12.7261   27.0494 O   0  0  0  0  0  0  0  0  0  0  0  0
   18.0771   11.7443   27.4646 C   0  0  0  0  0  0  0  0  0  0  0  0
   18.4954   11.1217   28.8202 C   0  0  0  0  0  0  0  0  0  0  0  0
   17.9812    9.7426   29.0047 N   0  0  0  0  0  0  0  0  0  0  0  0
   17.9993    9.3575   30.4201 C   0  0  0  0  0  0  0  0  0  0  0  0
   17.8357    7.8471   30.3663 C   0  0  0  0  0  0  0  0  0  0  0  0
   18.3775    7.4396   29.0011 C   0  0  0  0  0  0  0  0  0  0  0  0
   18.8268    8.7384   28.3473 C   0  0  0  0  0  0  0  0  0  0  0  0
   16.9103   10.8849   26.9153 N   0  0  0  0  0  0  0  0  0  0  0  0
   16.0287   11.1080   25.7944 C   0  0  0  0  0  0  0  0  0  0  0  0
   15.1000   12.3310   25.9287 C   0  0  2  0  0  0  0  0  0  0  0  0
   14.7948   12.6798   27.4014 C   0  0  0  0  0  0  0  0  0  0  0  0
   15.8304   13.3735   28.0693 O   0  0  0  0  0  0  0  0  0  0  0  0
   13.7882   12.1972   25.2909 N   0  0  0  0  0  0  0  0  0  0  0  0
   12.9420   10.9526   25.0057 C   0  0  0  0  0  0  0  0  0  0  0  0
   13.1830    9.8250   25.1609 O   0  0  0  0  0  0  0  0  0  0  0  0
   11.5470   11.2504   24.5471 C   0  0  0  0  0  0  0  0  0  0  0  0
   10.7819   10.2159   23.9637 C   0  0  0  0  0  0  0  0  0  0  0  0
    9.4230   10.3725   23.7142 C   0  0  0  0  0  0  0  0  0  0  0  0
    8.7713   11.5623   24.0166 C   0  0  0  0  0  0  0  0  0  0  0  0
    9.5395   12.5617   24.5982 C   0  0  0  0  0  0  0  0  0  0  0  0
    9.2231   13.8342   24.9508 N   0  0  0  0  0  0  0  0  0  0  0  0
   10.1166   14.4115   25.7772 N   0  0  0  0  0  0  0  0  0  0  0  0
   11.1394   13.5651   25.7247 C   0  0  0  0  0  0  0  0  0  0  0  0
   10.8793   12.4258   24.9275 C   0  0  0  0  0  0  0  0  0  0  0  0
  1  2  2  0
  2  3  1  0
  3  4  1  0
  4  5  1  0
  5  6  1  0
  6  7  1  0
  7  8  1  0
  2  9  1  0
  9 10  1  0
 11 10  1  1
 11 12  1  0
 12 13  1  0
 11 14  1  0
 14 15  1  0
 15 16  2  0
 15 17  1  0
 17 18  2  0
 18 19  1  0
 19 20  2  0
 20 21  1  0
 21 22  1  0
 22 23  1  0
 23 24  2  0
 24 25  1  0
  8  4  1  0
 25 17  1  0
 25 21  2  0
M  END
>  <inchikey>  (174) 
RQPYZWIDBNQYDN-UHFFFAOYSA-N

>  <energy_score>  (174) 
-10.220842

>  <subsites>  (174) 
1 - Active Site,2 - A3977/A/202/1

>  <alias>  (174) 
C9436-P106

>  <tags>  (174) 
openbind_a71ev2a_c1_scaffolds,BulkDock Fragalysis export,openbind_a71ev2a_c1_knitwork_impure,fragmenstein_placed

>  <distance_score>  (174) 
0.77402

>  <placement_batch>  (174) 
openbind_a71ev2a_c1_knitwork_impure

>  <name>  (174) 
C9436-P106

>  <ref_mols>  (174) 
A1140a,A0497a

>  <smiles>  (174) 
O=C(CN1CCCC1)NC[C@H](CO)NC(=O)c1cccc2[nH]ncc12

>  <HIPPO Compound ID>  (174) 
33929

>  <HIPPO Pose ID>  (174) 
372516

>  <ref_pdb>  (174) 
A4746a

$$$$
C9559-P183
     RDKit          3D

  9  9  0  0  0  0  0  0  0  0999 V2000
   10.0609   14.5253   26.2020 O   0  0  0  0  0  0  0  0  0  0  0  0
   10.4105   13.7965   25.2748 C   0  0  0  0  0  0  0  0  0  0  0  0
    9.4472   12.9892   24.4503 C   0  0  0  0  0  0  0  0  0  0  0  0
    8.8234   13.8766   23.3908 C   0  0  0  0  0  0  0  0  0  0  0  0
    9.7487   14.3802   22.3922 N   0  0  0  0  0  0  0  0  0  0  0  0
    9.3946   14.8790   21.1751 C   0  0  0  0  0  0  0  0  0  0  0  0
   10.5714   15.1611   20.5263 C   0  0  0  0  0  0  0  0  0  0  0  0
   11.5786   14.8712   21.4642 C   0  0  0  0  0  0  0  0  0  0  0  0
   11.0814   14.3996   22.6130 N   0  0  0  0  0  0  0  0  0  0  0  0
  1  2  2  0
  2  3  1  0
  3  4  1  0
  4  5  1  0
  5  6  1  0
  6  7  2  0
  7  8  1  0
  8  9  2  0
  9  5  1  0
M  END
>  <inchikey>  (175) 
PLKRCIBWWXFPQS-UHFFFAOYSA-N

>  <energy_score>  (175) 
-9.658435

>  <subsites>  (175) 
1 - Active Site

>  <alias>  (175) 
C9559-P183

>  <tags>  (175) 
openbind_a71ev2a_c1_scaffolds,BulkDock Fragalysis export,openbind_a71ev2a_c1_knitwork_impure,fragmenstein_placed

>  <distance_score>  (175) 
0.899889

>  <placement_batch>  (175) 
openbind_a71ev2a_c1_knitwork_impure

>  <name>  (175) 
C9559-P183

>  <ref_mols>  (175) 
A4445b,A3436a

>  <smiles>  (175) 
O=CCCn1cccn1

>  <HIPPO Compound ID>  (175) 
5358

>  <HIPPO Pose ID>  (175) 
372962

>  <ref_pdb>  (175) 
A4746a

$$$$
C17783-P174
     RDKit          3D

 15 15  0  0  0  0  0  0  0  0999 V2000
    7.0637   12.6411   24.8662 C   0  0  0  0  0  0  0  0  0  0  0  0
    8.1603   11.6521   24.5384 C   0  0  0  0  0  0  0  0  0  0  0  0
    7.5618   10.5056   24.0894 F   0  0  0  0  0  0  0  0  0  0  0  0
    8.7610   11.2817   25.6916 F   0  0  0  0  0  0  0  0  0  0  0  0
    9.1990   12.0446   23.4986 C   0  0  0  0  0  0  0  0  0  0  0  0
    9.6901   13.4826   23.5656 C   0  0  0  0  0  0  0  0  0  0  0  0
    9.4787   14.1864   24.4727 O   0  0  0  0  0  0  0  0  0  0  0  0
   10.4012   13.7703   22.2100 N   0  0  0  0  0  0  0  0  0  0  0  0
   10.9115   15.0111   21.6598 C   0  0  0  0  0  0  0  0  0  0  0  0
   12.3243   14.8657   21.1041 C   0  0  0  0  0  0  0  0  0  0  0  0
   12.8387   16.1132   20.4754 C   0  0  0  0  0  0  0  0  0  0  0  0
   13.6280   17.1245   20.9823 C   0  0  0  0  0  0  0  0  0  0  0  0
   13.9159   18.0641   20.0285 N   0  0  0  0  0  0  0  0  0  0  0  0
   13.3472   17.6140   18.9347 C   0  0  0  0  0  0  0  0  0  0  0  0
   12.6502   16.4565   19.1571 N   0  0  0  0  0  0  0  0  0  0  0  0
  1  2  1  0
  2  3  1  0
  2  4  1  0
  2  5  1  0
  5  6  1  0
  6  7  2  0
  6  8  1  0
  8  9  1  0
  9 10  1  0
 10 11  1  0
 11 12  2  0
 12 13  1  0
 13 14  2  0
 14 15  1  0
 15 11  1  0
M  END
>  <inchikey>  (176) 
BYSVFNXGWBOSLW-UHFFFAOYSA-N

>  <energy_score>  (176) 
-5.541678

>  <subsites>  (176) 
1 - Active Site,5 - A3181/A/202/1

>  <alias>  (176) 
C17783-P174

>  <tags>  (176) 
openbind_a71ev2a_c1_scaffolds,BulkDock Fragalysis export,openbind_a71ev2a_c1_knitwork_impure,fragmenstein_placed

>  <distance_score>  (176) 
0.889648

>  <placement_batch>  (176) 
openbind_a71ev2a_c1_knitwork_impure

>  <name>  (176) 
C17783-P174

>  <ref_mols>  (176) 
A3181b,A3568a,A3371a

>  <smiles>  (176) 
CC(F)(F)CC(=O)NCCc1cnc[nH]1

>  <HIPPO Compound ID>  (176) 
8052

>  <HIPPO Pose ID>  (176) 
373385

>  <ref_pdb>  (176) 
A4746a

$$$$
C2279-P174
     RDKit          3D

 18 18  0  0  0  0  0  0  0  0999 V2000
   14.6796   18.8913   20.3793 C   0  0  0  0  0  0  0  0  0  0  0  0
   13.6037   18.0794   19.6959 C   0  0  0  0  0  0  0  0  0  0  0  0
   14.0635   17.7090   18.4746 F   0  0  0  0  0  0  0  0  0  0  0  0
   12.5381   18.9000   19.4813 F   0  0  0  0  0  0  0  0  0  0  0  0
   13.1653   16.8414   20.4668 C   0  0  0  0  0  0  0  0  0  0  0  0
   12.0941   16.0957   19.6604 C   0  0  0  0  0  0  0  0  0  0  0  0
   11.5344   14.8313   20.3075 C   0  0  0  0  0  0  0  0  0  0  0  0
   10.7229   15.1144   21.5641 C   0  0  0  0  0  0  0  0  0  0  0  0
   10.5086   16.1955   21.9481 O   0  0  0  0  0  0  0  0  0  0  0  0
   10.3863   13.7381   22.1965 N   0  0  0  0  0  0  0  0  0  0  0  0
    9.8003   13.4114   23.4802 C   0  0  0  0  0  0  0  0  0  0  0  0
    8.7843   14.4835   23.8990 C   0  0  0  0  0  0  0  0  0  0  0  0
   10.9638   13.4006   24.4723 C   0  0  0  0  0  0  0  0  0  0  0  0
    9.1976   12.0252   23.4698 C   0  0  0  0  0  0  0  0  0  0  0  0
    9.6993   10.9595   22.8768 N   0  0  0  0  0  0  0  0  0  0  0  0
    8.9651    9.8882   23.3127 C   0  0  0  0  0  0  0  0  0  0  0  0
    7.9756   10.3021   24.1682 C   0  0  0  0  0  0  0  0  0  0  0  0
    8.0998   11.6620   24.2228 N   0  0  0  0  0  0  0  0  0  0  0  0
  1  2  1  0
  2  3  1  0
  2  4  1  0
  2  5  1  0
  5  6  1  0
  6  7  1  0
  7  8  1  0
  8  9  2  0
  8 10  1  0
 10 11  1  0
 11 12  1  0
 11 13  1  0
 11 14  1  0
 14 15  2  0
 15 16  1  0
 16 17  2  0
 17 18  1  0
 18 14  1  0
M  END
>  <inchikey>  (177) 
RDBFNHFBDWYSQG-UHFFFAOYSA-N

>  <energy_score>  (177) 
-21.704187

>  <subsites>  (177) 
1 - Active Site,5 - A3181/A/202/1

>  <alias>  (177) 
C2279-P174

>  <tags>  (177) 
openbind_a71ev2a_c1_scaffolds,BulkDock Fragalysis export,openbind_a71ev2a_c1_knitwork_impure,fragmenstein_placed

>  <distance_score>  (177) 
0.946801

>  <placement_batch>  (177) 
openbind_a71ev2a_c1_knitwork_impure

>  <name>  (177) 
C2279-P174

>  <ref_mols>  (177) 
A3181b,A3568a,A3371a

>  <smiles>  (177) 
CC(F)(F)CCCC(=O)NC(C)(C)c1ncc[nH]1

>  <HIPPO Compound ID>  (177) 
8468

>  <HIPPO Pose ID>  (177) 
373394

>  <ref_pdb>  (177) 
A4746a

$$$$
C901-P106
     RDKit          3D

 23 26  0  0  0  0  0  0  0  0999 V2000
   26.6807   16.3172   24.0328 O   0  0  0  0  0  0  0  0  0  0  0  0
   25.6113   16.7377   24.2581 C   0  0  0  0  0  0  0  0  0  0  0  0
   25.2632   18.2182   24.1516 C   0  0  0  0  0  0  0  0  0  0  0  0
   24.3777   18.5290   22.9440 C   0  0  0  0  0  0  0  0  0  0  0  0
   24.9574   19.6704   22.1429 C   0  0  0  0  0  0  0  0  0  0  0  0
   24.5557   21.0039   22.3818 C   0  0  0  0  0  0  0  0  0  0  0  0
   25.1451   22.0651   21.6850 C   0  0  0  0  0  0  0  0  0  0  0  0
   26.1281   21.7636   20.7670 C   0  0  0  0  0  0  0  0  0  0  0  0
   26.5252   20.4692   20.5321 C   0  0  0  0  0  0  0  0  0  0  0  0
   25.9612   19.4036   21.1980 C   0  0  0  0  0  0  0  0  0  0  0  0
   27.5166   20.3883   19.6068 O   0  0  0  0  0  0  0  0  0  0  0  0
   27.6535   21.7725   19.2360 C   0  0  0  0  0  0  0  0  0  0  0  0
   26.8143   22.6605   20.0082 O   0  0  0  0  0  0  0  0  0  0  0  0
   24.3374   16.0203   24.7892 N   0  0  0  0  0  0  0  0  0  0  0  0
   24.1075   14.7088   25.0442 C   0  0  0  0  0  0  0  0  0  0  0  0
   25.0366   13.6542   24.9651 C   0  0  0  0  0  0  0  0  0  0  0  0
   24.3252   12.5269   25.2979 C   0  0  0  0  0  0  0  0  0  0  0  0
   23.0648   12.9627   25.5953 N   0  0  0  0  0  0  0  0  0  0  0  0
   21.9529   12.0739   25.9788 C   0  0  0  0  0  0  0  0  0  0  0  0
   21.0124   12.6840   27.0535 C   0  0  0  0  0  0  0  0  0  0  0  0
   20.9304   11.2699   27.6650 C   0  0  0  0  0  0  0  0  0  0  0  0
   22.3226   11.0139   27.0499 C   0  0  0  0  0  0  0  0  0  0  0  0
   22.9065   14.2897   25.4410 N   0  0  0  0  0  0  0  0  0  0  0  0
  1  2  2  0
  2  3  1  0
  3  4  1  0
  4  5  1  0
  5  6  2  0
  6  7  1  0
  7  8  2  0
  8  9  1  0
  9 10  2  0
  9 11  1  0
 11 12  1  0
 12 13  1  0
  2 14  1  0
 14 15  1  0
 15 16  1  0
 16 17  2  0
 17 18  1  0
 18 19  1  0
 19 20  1  0
 20 21  1  0
 21 22  1  0
 18 23  1  0
 10  5  1  0
 23 15  2  0
 13  8  1  0
 22 19  1  0
M  END
>  <inchikey>  (178) 
TZNQIOOJWDMLNH-UHFFFAOYSA-N

>  <energy_score>  (178) 
-49.843064

>  <subsites>  (178) 
1 - Active Site,5 - A3181/A/202/1

>  <alias>  (178) 
C901-P106

>  <tags>  (178) 
openbind_a71ev2a_c1_scaffolds,BulkDock Fragalysis export,openbind_a71ev2a_c1_knitwork_impure,fragmenstein_placed

>  <distance_score>  (178) 
0.987098

>  <placement_batch>  (178) 
openbind_a71ev2a_c1_knitwork_impure

>  <name>  (178) 
C901-P106

>  <ref_mols>  (178) 
A0351b,A1140a

>  <smiles>  (178) 
O=C(CCc1ccc2c(c1)OCO2)Nc1ccn(C2CCC2)n1

>  <HIPPO Compound ID>  (178) 
8923

>  <HIPPO Pose ID>  (178) 
373907

>  <ref_pdb>  (178) 
A4746a

$$$$
C7479-P337
     RDKit          3D

 23 24  0  0  0  0  0  0  0  0999 V2000
    3.3797   12.3938   18.2338 C   0  0  0  0  0  0  0  0  0  0  0  0
    3.2922   12.5780   19.7505 C   0  0  0  0  0  0  0  0  0  0  0  0
    2.2831   11.5980   20.3498 C   0  0  0  0  0  0  0  0  0  0  0  0
    2.9517   13.9737   20.1266 C   0  0  0  0  0  0  0  0  0  0  0  0
    1.9688   14.5719   19.3912 O   0  0  0  0  0  0  0  0  0  0  0  0
    1.8766   15.8184   19.9058 C   0  0  0  0  0  0  0  0  0  0  0  0
    2.6821   16.0728   20.9159 N   0  0  0  0  0  0  0  0  0  0  0  0
    3.3554   14.8736   21.1006 C   0  0  0  0  0  0  0  0  0  0  0  0
    4.3177   14.6963   22.2326 C   0  0  0  0  0  0  0  0  0  0  0  0
    5.5340   15.4375   21.9224 N   0  0  0  0  0  0  0  0  0  0  0  0
    7.0001   14.7197   22.2617 S   0  0  0  0  0  0  0  0  0  0  0  0
    6.7754   13.3275   21.8924 O   0  0  0  0  0  0  0  0  0  0  0  0
    7.9339   15.4222   21.4096 O   0  0  0  0  0  0  0  0  0  0  0  0
    7.0220   15.0515   23.7570 N   0  0  0  0  0  0  0  0  0  0  0  0
    8.4112   14.8328   24.3747 S   0  0  2  0  0  0  0  0  0  0  0  0
    8.2745   15.3623   26.0648 C   0  0  0  0  0  0  0  0  0  0  0  0
    9.6453   15.4346   23.9136 O   0  0  0  0  0  0  0  0  0  0  0  0
    8.7325   13.0774   24.5698 C   0  0  0  0  0  0  0  0  0  0  0  0
    9.4759   12.5151   23.3699 C   0  0  0  0  0  0  0  0  0  0  0  0
    9.7025   11.0230   23.4434 C   0  0  0  0  0  0  0  0  0  0  0  0
    8.6707   10.1709   24.1409 C   0  0  0  0  0  0  0  0  0  0  0  0
    7.7943   10.8381   25.1797 C   0  0  0  0  0  0  0  0  0  0  0  0
    7.4718   12.2867   24.9015 C   0  0  0  0  0  0  0  0  0  0  0  0
  1  2  1  0
  2  3  1  0
  2  4  1  0
  4  5  1  0
  5  6  1  0
  6  7  2  0
  7  8  1  0
  8  9  1  0
  9 10  1  0
 10 11  1  0
 11 12  2  0
 11 13  2  0
 11 14  1  0
 14 15  2  0
 15 16  1  1
 15 17  2  0
 15 18  1  0
 18 19  1  0
 19 20  1  0
 20 21  1  0
 21 22  1  0
 22 23  1  0
  8  4  2  0
 23 18  1  0
M  END
>  <inchikey>  (179) 
IKGWEUPIBZYKCX-UHFFFAOYSA-N

>  <energy_score>  (179) 
-105.574237

>  <subsites>  (179) 
1 - Active Site

>  <alias>  (179) 
C7479-P337

>  <tags>  (179) 
openbind_a71ev2a_c1_scaffolds,BulkDock Fragalysis export,openbind_a71ev2a_c1_knitwork_impure,fragmenstein_placed

>  <distance_score>  (179) 
0.912135

>  <placement_batch>  (179) 
openbind_a71ev2a_c1_knitwork_impure

>  <name>  (179) 
C7479-P337

>  <ref_mols>  (179) 
A3623a,A4214b

>  <smiles>  (179) 
CC(C)c1ocnc1CNS(=O)(=O)N=[S@](C)(=O)C1CCCCC1

>  <HIPPO Compound ID>  (179) 
28778

>  <HIPPO Pose ID>  (179) 
374253

>  <ref_pdb>  (179) 
A4746a

$$$$
C1386-P339
     RDKit          3D

 16 16  0  0  0  0  0  0  0  0999 V2000
   10.9144   15.6043   19.3872 C   0  0  0  0  0  0  0  0  0  0  0  0
   10.7970   15.2436   20.8673 C   0  0  0  0  0  0  0  0  0  0  0  0
   11.8327   16.0226   21.6803 C   0  0  0  0  0  0  0  0  0  0  0  0
    9.3713   15.5119   21.3646 C   0  0  0  0  0  0  0  0  0  0  0  0
    9.1432   14.9489   22.6731 N   0  0  0  0  0  0  0  0  0  0  0  0
    8.2489   13.7636   23.1166 C   0  0  0  0  0  0  0  0  0  0  0  0
    7.5002   13.1095   22.5035 O   0  0  0  0  0  0  0  0  0  0  0  0
    8.5184   13.5175   24.6008 C   0  0  0  0  0  0  0  0  0  0  0  0
    7.2793   13.8163   25.4661 C   0  0  1  0  0  0  0  0  0  0  0  0
    7.0357   12.6451   26.4291 C   0  0  0  0  0  0  0  0  0  0  0  0
    7.3171   15.1705   26.2380 C   0  0  1  0  0  0  0  0  0  0  0  0
    8.5132   15.3335   27.1961 C   0  0  0  0  0  0  0  0  0  0  0  0
    8.4611   16.6873   27.9034 C   0  0  0  0  0  0  0  0  0  0  0  0
    8.3052   17.8331   26.9094 C   0  0  0  0  0  0  0  0  0  0  0  0
    7.1434   17.6357   26.0543 N   0  0  0  0  0  0  0  0  0  0  0  0
    7.2261   16.3866   25.2948 C   0  0  0  0  0  0  0  0  0  0  0  0
  1  2  1  0
  2  3  1  0
  2  4  1  0
  4  5  1  0
  5  6  1  0
  6  7  2  0
  6  8  1  0
  8  9  1  0
  9 10  1  1
  9 11  1  0
 11 12  1  6
 12 13  1  0
 13 14  1  0
 14 15  1  0
 15 16  1  0
 16 11  1  0
M  END
>  <inchikey>  (180) 
CUBOAIJARPZGGJ-UHFFFAOYSA-N

>  <energy_score>  (180) 
-30.618182

>  <subsites>  (180) 
1 - Active Site

>  <alias>  (180) 
C1386-P339

>  <tags>  (180) 
openbind_a71ev2a_c1_scaffolds,BulkDock Fragalysis export,openbind_a71ev2a_c1_knitwork_impure,fragmenstein_placed

>  <distance_score>  (180) 
0.694462

>  <placement_batch>  (180) 
openbind_a71ev2a_c1_knitwork_impure

>  <name>  (180) 
C1386-P339

>  <ref_mols>  (180) 
A1776a,A4237b

>  <smiles>  (180) 
CC(C)CNC(=O)C[C@@H](C)[C@H]1CCCNC1

>  <HIPPO Compound ID>  (180) 
533

>  <HIPPO Pose ID>  (180) 
374275

>  <ref_pdb>  (180) 
A4746a

$$$$
C36972-P445
     RDKit          3D

 13 13  0  0  0  0  0  0  0  0999 V2000
    9.0528    9.0766   23.2984 C   0  0  0  0  0  0  0  0  0  0  0  0
    8.9579   10.5643   23.5681 C   0  0  0  0  0  0  0  0  0  0  0  0
    8.0965   11.0397   24.7650 C   0  0  0  0  0  0  0  0  0  0  0  0
    6.9348   10.1221   25.1249 C   0  0  0  0  0  0  0  0  0  0  0  0
    6.0170   10.6637   26.2053 C   0  0  0  0  0  0  0  0  0  0  0  0
    7.7214   12.5189   24.5945 C   0  0  0  0  0  0  0  0  0  0  0  0
    8.9818   13.3268   24.3370 C   0  0  0  0  0  0  0  0  0  0  0  0
    9.9394   13.2250   25.1076 O   0  0  0  0  0  0  0  0  0  0  0  0
    8.9721   14.1503   23.0510 C   0  0  0  0  0  0  0  0  0  0  0  0
   10.2501   14.8210   22.8135 N   0  0  0  0  0  0  0  0  0  0  0  0
   10.3167   15.2904   21.3976 C   0  0  0  0  0  0  0  0  0  0  0  0
   11.7848   14.8339   21.3899 C   0  0  0  0  0  0  0  0  0  0  0  0
   11.3384   13.8624   22.4972 C   0  0  0  0  0  0  0  0  0  0  0  0
  1  2  1  0
  2  3  1  0
  3  4  1  0
  4  5  1  0
  3  6  1  0
  6  7  1  0
  7  8  2  0
  7  9  1  0
  9 10  1  0
 10 11  1  0
 11 12  1  0
 12 13  1  0
 13 10  1  0
M  END
>  <inchikey>  (181) 
BWURFTTURAXDKM-UHFFFAOYSA-N

>  <energy_score>  (181) 
-25.718765

>  <subsites>  (181) 
1 - Active Site

>  <alias>  (181) 
C36972-P445

>  <tags>  (181) 
openbind_a71ev2a_c1_scaffolds,BulkDock Fragalysis export,openbind_a71ev2a_c1_knitwork_impure,fragmenstein_placed

>  <distance_score>  (181) 
0.866775

>  <placement_batch>  (181) 
openbind_a71ev2a_c1_knitwork_impure

>  <name>  (181) 
C36972-P445

>  <ref_mols>  (181) 
A1779a,A4715a

>  <smiles>  (181) 
CCC(CC)CC(=O)CN1CCC1

>  <HIPPO Compound ID>  (181) 
5691

>  <HIPPO Pose ID>  (181) 
374294

>  <ref_pdb>  (181) 
A4746a

$$$$
C1390-P242
     RDKit          3D

 17 17  0  0  0  0  0  0  0  0999 V2000
    9.8096   11.4602   23.1645 C   0  0  0  0  0  0  0  0  0  0  0  0
    9.7139   10.8750   24.5443 C   0  0  0  0  0  0  0  0  0  0  0  0
    8.3074   10.8896   25.1235 C   0  0  0  0  0  0  0  0  0  0  0  0
    7.5115   12.2110   25.2012 C   0  0  1  0  0  0  0  0  0  0  0  0
    6.5477   12.1232   26.3095 N   0  0  0  0  0  0  0  0  0  0  0  0
    5.3636   13.0504   26.6899 C   0  0  0  0  0  0  0  0  0  0  0  0
    5.0203   14.0645   26.2288 O   0  0  0  0  0  0  0  0  0  0  0  0
    4.6692   12.3971   27.8954 C   0  0  0  0  0  0  0  0  0  0  0  0
    5.5327   12.5239   29.1558 C   0  0  0  0  0  0  0  0  0  0  0  0
    4.8093   11.9646   30.3785 C   0  0  0  0  0  0  0  0  0  0  0  0
    3.5117   12.6017   30.5692 N   0  0  0  0  0  0  0  0  0  0  0  0
    2.6456   12.4550   29.4035 C   0  0  0  0  0  0  0  0  0  0  0  0
    3.2967   13.0341   28.1516 C   0  0  0  0  0  0  0  0  0  0  0  0
    8.3615   13.5012   25.1802 C   0  0  0  0  0  0  0  0  0  0  0  0
    7.7648   14.5268   25.8184 F   0  0  0  0  0  0  0  0  0  0  0  0
    8.5901   13.9046   23.9085 F   0  0  0  0  0  0  0  0  0  0  0  0
    9.5658   13.3275   25.7686 F   0  0  0  0  0  0  0  0  0  0  0  0
  1  2  1  0
  2  3  1  0
  4  3  1  1
  4  5  1  0
  5  6  1  0
  6  7  2  0
  6  8  1  0
  8  9  1  0
  9 10  1  0
 10 11  1  0
 11 12  1  0
 12 13  1  0
  4 14  1  0
 14 15  1  0
 14 16  1  0
 14 17  1  0
 13  8  1  0
M  END
>  <inchikey>  (182) 
KTRXBMCRTROOIW-UHFFFAOYSA-N

>  <energy_score>  (182) 
-14.278954

>  <subsites>  (182) 
6 - A0486/A/147/1,1 - Active Site

>  <alias>  (182) 
C1390-P242

>  <tags>  (182) 
openbind_a71ev2a_c1_scaffolds,BulkDock Fragalysis export,openbind_a71ev2a_c1_knitwork_impure,fragmenstein_placed

>  <distance_score>  (182) 
0.9417

>  <placement_batch>  (182) 
openbind_a71ev2a_c1_knitwork_impure

>  <name>  (182) 
C1390-P242

>  <ref_mols>  (182) 
A0486a,A3938a

>  <smiles>  (182) 
CCC[C@@H](NC(=O)C1CCNCC1)C(F)(F)F

>  <HIPPO Compound ID>  (182) 
16890

>  <HIPPO Pose ID>  (182) 
374403

>  <ref_pdb>  (182) 
A4746a

$$$$
C2382-P198
     RDKit          3D

 15 15  0  0  0  0  0  0  0  0999 V2000
    6.5591   10.4454   25.4736 C   0  0  0  0  0  0  0  0  0  0  0  0
    7.0825   11.5805   24.5982 C   0  0  0  0  0  0  0  0  0  0  0  0
    8.5257   11.3597   24.1835 C   0  0  0  0  0  0  0  0  0  0  0  0
    6.7954   12.9403   25.2276 C   0  0  0  0  0  0  0  0  0  0  0  0
    7.7355   14.0836   24.8742 C   0  0  0  0  0  0  0  0  0  0  0  0
    8.4127   14.5624   25.8001 O   0  0  0  0  0  0  0  0  0  0  0  0
    7.7503   14.7352   23.4518 C   0  0  0  0  0  0  0  0  0  0  0  0
    6.7779   14.0682   22.4731 C   0  0  0  0  0  0  0  0  0  0  0  0
    7.2116   16.1592   23.7127 C   0  0  0  0  0  0  0  0  0  0  0  0
    9.1073   14.6597   22.8031 N   0  0  0  0  0  0  0  0  0  0  0  0
   10.2623   14.8628   23.6902 C   0  0  0  0  0  0  0  0  0  0  0  0
   11.5955   14.6478   22.9665 C   0  0  0  0  0  0  0  0  0  0  0  0
   11.7257   15.5509   21.7530 C   0  0  0  0  0  0  0  0  0  0  0  0
   10.5315   15.3366   20.8438 C   0  0  0  0  0  0  0  0  0  0  0  0
    9.2270   15.5349   21.6123 C   0  0  0  0  0  0  0  0  0  0  0  0
  1  2  1  0
  2  3  1  0
  2  4  1  0
  4  5  1  0
  5  6  2  0
  5  7  1  0
  7  8  1  0
  7  9  1  0
  7 10  1  0
 10 11  1  0
 11 12  1  0
 12 13  1  0
 13 14  1  0
 14 15  1  0
 15 10  1  0
M  END
>  <inchikey>  (183) 
BZLSGPYVTJTSHN-UHFFFAOYSA-N

>  <energy_score>  (183) 
-47.996189

>  <subsites>  (183) 
1 - Active Site

>  <alias>  (183) 
C2382-P198

>  <tags>  (183) 
openbind_a71ev2a_c1_scaffolds,BulkDock Fragalysis export,openbind_a71ev2a_c1_knitwork_impure,fragmenstein_placed

>  <distance_score>  (183) 
0.832459

>  <placement_batch>  (183) 
openbind_a71ev2a_c1_knitwork_impure

>  <name>  (183) 
C2382-P198

>  <ref_mols>  (183) 
A1775a,A3618a

>  <smiles>  (183) 
CC(C)CC(=O)C(C)(C)N1CCCCC1

>  <HIPPO Compound ID>  (183) 
27893

>  <HIPPO Pose ID>  (183) 
374431

>  <ref_pdb>  (183) 
A4746a

$$$$
C7529-P618
     RDKit          3D

 13 13  0  0  0  0  0  0  0  0999 V2000
   10.5436   13.1925   25.5251 O   0  0  0  0  0  0  0  0  0  0  0  0
    9.6164   13.1341   24.8016 C   0  0  0  0  0  0  0  0  0  0  0  0
    9.0157   14.2183   23.8166 N   0  0  0  0  0  0  0  0  0  0  0  0
    9.4779   15.4862   23.4811 N   0  0  0  0  0  0  0  0  0  0  0  0
   10.8978   15.7063   23.7695 C   0  0  0  0  0  0  0  0  0  0  0  0
   11.8428   14.9786   22.8201 C   0  0  0  0  0  0  0  0  0  0  0  0
   11.5439   15.3376   21.3704 C   0  0  0  0  0  0  0  0  0  0  0  0
   10.0690   15.1160   21.0624 C   0  0  0  0  0  0  0  0  0  0  0  0
    9.1769   15.8361   22.0752 C   0  0  0  0  0  0  0  0  0  0  0  0
    8.6678   11.9235   24.6934 C   0  0  0  0  0  0  0  0  0  0  0  0
    9.1751   10.7550   25.1625 F   0  0  0  0  0  0  0  0  0  0  0  0
    8.3590   11.6961   23.3887 F   0  0  0  0  0  0  0  0  0  0  0  0
    7.2001   12.2867   25.6207 Cl  0  0  0  0  0  0  0  0  0  0  0  0
  1  2  2  0
  2  3  1  0
  3  4  1  0
  4  5  1  0
  5  6  1  0
  6  7  1  0
  7  8  1  0
  8  9  1  0
  2 10  1  0
 10 11  1  0
 10 12  1  0
 10 13  1  0
  9  4  1  0
M  END
>  <inchikey>  (184) 
OKCDMJXQKQAOBD-UHFFFAOYSA-N

>  <energy_score>  (184) 
-4.400591

>  <subsites>  (184) 
1 - Active Site

>  <alias>  (184) 
C7529-P618

>  <tags>  (184) 
openbind_a71ev2a_c1_scaffolds,BulkDock Fragalysis export,openbind_a71ev2a_c1_knitwork_impure,fragmenstein_placed

>  <distance_score>  (184) 
0.897253

>  <placement_batch>  (184) 
openbind_a71ev2a_c1_knitwork_impure

>  <name>  (184) 
C7529-P618

>  <ref_mols>  (184) 
A1445a,A5425b

>  <smiles>  (184) 
O=C(NN1CCCCC1)C(F)(F)Cl

>  <HIPPO Compound ID>  (184) 
93118

>  <HIPPO Pose ID>  (184) 
375731

>  <ref_pdb>  (184) 
A4746a

$$$$
C2408-P439
     RDKit          3D

 15 15  0  0  0  0  0  0  0  0999 V2000
    5.6743   12.0441   26.8647 C   0  0  0  0  0  0  0  0  0  0  0  0
    6.9038   11.3714   26.2667 C   0  0  0  0  0  0  0  0  0  0  0  0
    7.3521   11.9381   24.9091 C   0  0  2  0  0  0  0  0  0  0  0  0
    8.6331   11.2319   24.4634 C   0  0  0  0  0  0  0  0  0  0  0  0
    7.5649   13.4461   24.9707 C   0  0  0  0  0  0  0  0  0  0  0  0
    7.8895   13.9633   26.0495 O   0  0  0  0  0  0  0  0  0  0  0  0
    7.4405   14.3248   23.6816 C   0  0  0  0  0  0  0  0  0  0  0  0
    6.3254   13.8346   22.7431 C   0  0  0  0  0  0  0  0  0  0  0  0
    6.9591   15.7012   24.1932 C   0  0  0  0  0  0  0  0  0  0  0  0
    8.7355   14.3195   22.9310 N   0  0  0  0  0  0  0  0  0  0  0  0
    9.9303   14.5650   23.7543 C   0  0  0  0  0  0  0  0  0  0  0  0
   11.2150   14.3569   22.9493 C   0  0  0  0  0  0  0  0  0  0  0  0
   11.2612   15.2693   21.7354 C   0  0  0  0  0  0  0  0  0  0  0  0
   10.0019   15.0851   20.9065 C   0  0  0  0  0  0  0  0  0  0  0  0
    8.7401   15.2263   21.7586 C   0  0  0  0  0  0  0  0  0  0  0  0
  1  2  1  0
  2  3  1  0
  3  4  1  1
  3  5  1  0
  5  6  2  0
  5  7  1  0
  7  8  1  0
  7  9  1  0
  7 10  1  0
 10 11  1  0
 11 12  1  0
 12 13  1  0
 13 14  1  0
 14 15  1  0
 15 10  1  0
M  END
>  <inchikey>  (185) 
WNSGNWHGSWFAHB-UHFFFAOYSA-N

>  <energy_score>  (185) 
-62.403833

>  <subsites>  (185) 
1 - Active Site

>  <alias>  (185) 
C2408-P439

>  <tags>  (185) 
openbind_a71ev2a_c1_scaffolds,BulkDock Fragalysis export,openbind_a71ev2a_c1_knitwork_impure,fragmenstein_placed

>  <distance_score>  (185) 
0.796001

>  <placement_batch>  (185) 
openbind_a71ev2a_c1_knitwork_impure

>  <name>  (185) 
C2408-P439

>  <ref_mols>  (185) 
A1775a,A4706a

>  <smiles>  (185) 
CC[C@H](C)C(=O)C(C)(C)N1CCCCC1

>  <HIPPO Compound ID>  (185) 
14951

>  <HIPPO Pose ID>  (185) 
376153

>  <ref_pdb>  (185) 
A4746a

$$$$
C38621-P170
     RDKit          3D

 12 12  0  0  0  0  0  0  0  0999 V2000
   10.9910   15.3130   19.5797 C   0  0  0  0  0  0  0  0  0  0  0  0
   11.0937   15.2227   21.0900 C   0  0  0  0  0  0  0  0  0  0  0  0
    9.7308   15.0517   21.7521 C   0  0  0  0  0  0  0  0  0  0  0  0
    9.9398   14.9832   23.1596 O   0  0  0  0  0  0  0  0  0  0  0  0
    8.8226   14.5455   23.9264 C   0  0  0  0  0  0  0  0  0  0  0  0
    8.5708   13.0390   23.8240 C   0  0  2  0  0  0  0  0  0  0  0  0
    7.4549   12.5740   24.7616 C   0  0  0  0  0  0  0  0  0  0  0  0
    7.5132   11.0860   25.1209 C   0  0  0  0  0  0  0  0  0  0  0  0
    8.4073   10.2418   24.2276 C   0  0  0  0  0  0  0  0  0  0  0  0
    9.6416   10.8817   23.9002 N   0  0  0  0  0  0  0  0  0  0  0  0
    9.8227   12.2318   24.0734 C   0  0  0  0  0  0  0  0  0  0  0  0
   10.9049   12.6862   24.4173 O   0  0  0  0  0  0  0  0  0  0  0  0
  1  2  1  0
  2  3  1  0
  3  4  1  0
  4  5  1  0
  6  5  1  1
  6  7  1  0
  7  8  1  0
  8  9  1  0
  9 10  1  0
 10 11  1  0
 11 12  2  0
 11  6  1  0
M  END
>  <inchikey>  (186) 
HWNMIYOIZLOAOJ-UHFFFAOYSA-N

>  <energy_score>  (186) 
-10.584722

>  <subsites>  (186) 
1 - Active Site

>  <alias>  (186) 
C38621-P170

>  <tags>  (186) 
openbind_a71ev2a_c1_scaffolds,BulkDock Fragalysis export,openbind_a71ev2a_c1_knitwork_impure,fragmenstein_placed

>  <distance_score>  (186) 
0.87067

>  <placement_batch>  (186) 
openbind_a71ev2a_c1_knitwork_impure

>  <name>  (186) 
C38621-P170

>  <ref_mols>  (186) 
A3579a,A1779a

>  <smiles>  (186) 
CCCOC[C@@H]1CCCNC1=O

>  <HIPPO Compound ID>  (186) 
31471

>  <HIPPO Pose ID>  (186) 
376513

>  <ref_pdb>  (186) 
A4746a

$$$$
C3646-P213
     RDKit          3D

 11 12  0  0  0  0  0  0  0  0999 V2000
    7.9520   12.0558   24.8883 C   0  0  0  0  0  0  0  0  0  0  0  0
    7.8620   10.6781   24.7594 C   0  0  0  0  0  0  0  0  0  0  0  0
    6.9974    9.9760   25.5976 C   0  0  0  0  0  0  0  0  0  0  0  0
    6.2861   10.6638   26.5750 C   0  0  0  0  0  0  0  0  0  0  0  0
    5.4155    9.9915   27.5262 C   0  0  0  0  0  0  0  0  0  0  0  0
    4.5496    8.9244   27.4938 C   0  0  0  0  0  0  0  0  0  0  0  0
    4.1164    8.7685   28.8189 C   0  0  0  0  0  0  0  0  0  0  0  0
    4.6610    9.6802   29.6245 N   0  0  0  0  0  0  0  0  0  0  0  0
    5.4705   10.4578   28.8051 O   0  0  0  0  0  0  0  0  0  0  0  0
    6.3918   12.0012   26.7344 N   0  0  0  0  0  0  0  0  0  0  0  0
    7.1899   12.6670   25.8698 C   0  0  0  0  0  0  0  0  0  0  0  0
  1  2  2  0
  2  3  1  0
  3  4  2  0
  4  5  1  0
  5  6  2  0
  6  7  1  0
  7  8  2  0
  8  9  1  0
  4 10  1  0
 10 11  2  0
 11  1  1  0
  9  5  1  0
M  END
>  <inchikey>  (187) 
BSZJDRPOJAAOSY-UHFFFAOYSA-N

>  <energy_score>  (187) 
-13.120408

>  <subsites>  (187) 
1 - Active Site

>  <alias>  (187) 
C3646-P213

>  <tags>  (187) 
openbind_a71ev2a_c1_scaffolds,BulkDock Fragalysis export,openbind_a71ev2a_c1_knitwork_impure,fragmenstein_placed

>  <distance_score>  (187) 
0.991479

>  <placement_batch>  (187) 
openbind_a71ev2a_c1_knitwork_impure

>  <name>  (187) 
C3646-P213

>  <ref_mols>  (187) 
A0556a,A3548a,A2629a

>  <smiles>  (187) 
c1ccc(-c2ccno2)nc1

>  <HIPPO Compound ID>  (187) 
4560

>  <HIPPO Pose ID>  (187) 
376727

>  <ref_pdb>  (187) 
A4746a

$$$$
C8041-P151
     RDKit          3D

 19 19  0  0  0  0  0  0  0  0999 V2000
    9.0913   16.7430   21.5608 C   0  0  0  0  0  0  0  0  0  0  0  0
    9.4261   15.2613   21.4703 C   0  0  1  0  0  0  0  0  0  0  0  0
   10.9012   15.0079   21.1784 C   0  0  0  0  0  0  0  0  0  0  0  0
   11.2846   15.2890   19.7365 C   0  0  0  0  0  0  0  0  0  0  0  0
   10.7839   14.3904   18.8748 F   0  0  0  0  0  0  0  0  0  0  0  0
   10.8893   16.5072   19.3280 F   0  0  0  0  0  0  0  0  0  0  0  0
   12.6261   15.2259   19.6147 F   0  0  0  0  0  0  0  0  0  0  0  0
    8.9908   14.6246   22.7128 N   0  0  0  0  0  0  0  0  0  0  0  0
    7.7747   13.6994   23.0006 C   0  0  0  0  0  0  0  0  0  0  0  0
    6.9805   13.2434   22.2722 O   0  0  0  0  0  0  0  0  0  0  0  0
    7.7269   13.3839   24.5559 C   0  0  0  0  0  0  0  0  0  0  0  0
    8.7315   14.0073   25.2484 F   0  0  0  0  0  0  0  0  0  0  0  0
    6.5903   13.9368   25.0910 F   0  0  0  0  0  0  0  0  0  0  0  0
    7.8044   11.8857   24.8097 C   0  0  0  0  0  0  0  0  0  0  0  0
    6.9051   11.2980   25.7073 C   0  0  0  0  0  0  0  0  0  0  0  0
    6.9399    9.9302   25.8865 C   0  0  0  0  0  0  0  0  0  0  0  0
    7.8108    9.1236   25.2521 N   0  0  0  0  0  0  0  0  0  0  0  0
    8.6958    9.6993   24.4086 C   0  0  0  0  0  0  0  0  0  0  0  0
    8.7472   11.0644   24.1746 C   0  0  0  0  0  0  0  0  0  0  0  0
  2  1  1  1
  2  3  1  0
  3  4  1  0
  4  5  1  0
  4  6  1  0
  4  7  1  0
  2  8  1  0
  8  9  1  0
  9 10  2  0
  9 11  1  0
 11 12  1  0
 11 13  1  0
 11 14  1  0
 14 15  2  0
 15 16  1  0
 16 17  2  0
 17 18  1  0
 18 19  2  0
 19 14  1  0
M  END
>  <inchikey>  (188) 
GPNVFMKKUMJBLG-UHFFFAOYSA-N

>  <energy_score>  (188) 
-7.999166

>  <subsites>  (188) 
1 - Active Site

>  <alias>  (188) 
C8041-P151

>  <tags>  (188) 
openbind_a71ev2a_c1_scaffolds,BulkDock Fragalysis export,openbind_a71ev2a_c1_knitwork_impure,fragmenstein_placed

>  <distance_score>  (188) 
0.951935

>  <placement_batch>  (188) 
openbind_a71ev2a_c1_knitwork_impure

>  <name>  (188) 
C8041-P151

>  <ref_mols>  (188) 
A3568a,A3194a

>  <smiles>  (188) 
C[C@@H](CC(F)(F)F)NC(=O)C(F)(F)c1ccncc1

>  <HIPPO Compound ID>  (188) 
10821

>  <HIPPO Pose ID>  (188) 
376946

>  <ref_pdb>  (188) 
A4746a

$$$$
C19976-P296
     RDKit          3D

 15 17  0  0  0  0  0  0  0  0999 V2000
    4.9459   13.3473   29.5698 C   0  0  0  0  0  0  0  0  0  0  0  0
    4.5378   13.5410   28.0979 C   0  0  0  0  0  0  0  0  0  0  0  0
    4.6050   15.0504   27.7800 C   0  0  0  0  0  0  0  0  0  0  0  0
    3.0835   13.0769   27.8939 C   0  0  0  0  0  0  0  0  0  0  0  0
    5.4798   12.7749   27.1723 C   0  0  0  0  0  0  0  0  0  0  0  0
    6.2233   13.3421   26.2374 N   0  0  0  0  0  0  0  0  0  0  0  0
    6.9285   12.3844   25.5483 C   0  0  0  0  0  0  0  0  0  0  0  0
    6.7419   11.0981   25.9834 C   0  0  0  0  0  0  0  0  0  0  0  0
    5.6550   11.0522   27.2829 S   0  0  0  0  0  0  0  0  0  0  0  0
    7.4677    9.9188   25.4614 C   0  0  0  0  0  0  0  0  0  0  0  0
    8.5628   10.2283   24.4384 C   0  0  0  0  0  0  0  0  0  0  0  0
    9.0102   11.6994   24.3713 C   0  0  0  0  0  0  0  0  0  0  0  0
    7.8561   12.7148   24.4358 C   0  0  0  0  0  0  0  0  0  0  0  0
    9.5916    9.1025   24.3367 C   0  0  0  0  0  0  0  0  0  0  0  0
    8.8080    9.4286   23.1626 C   0  0  0  0  0  0  0  0  0  0  0  0
  1  2  1  0
  2  3  1  0
  2  4  1  0
  2  5  1  0
  5  6  2  0
  6  7  1  0
  7  8  2  0
  8  9  1  0
  8 10  1  0
 10 11  1  0
 11 12  1  0
 12 13  1  0
 11 14  1  0
 14 15  1  0
  9  5  1  0
 15 11  1  0
 13  7  1  0
M  END
>  <inchikey>  (189) 
DDAYMZHBOWJNFK-UHFFFAOYSA-N

>  <energy_score>  (189) 
-46.823001

>  <subsites>  (189) 
1 - Active Site

>  <alias>  (189) 
C19976-P296

>  <tags>  (189) 
openbind_a71ev2a_c1_scaffolds,BulkDock Fragalysis export,openbind_a71ev2a_c1_knitwork_impure,fragmenstein_placed

>  <distance_score>  (189) 
0.874866

>  <placement_batch>  (189) 
openbind_a71ev2a_c1_knitwork_impure

>  <name>  (189) 
C19976-P296

>  <ref_mols>  (189) 
A4311a,A0556a

>  <smiles>  (189) 
CC(C)(C)c1nc2c(s1)CC1(CC2)CC1

>  <HIPPO Compound ID>  (189) 
9575

>  <HIPPO Pose ID>  (189) 
377914

>  <ref_pdb>  (189) 
A1778a

$$$$
C82692-P296
     RDKit          3D

 11 11  0  0  0  0  0  0  0  0999 V2000
    4.3362   10.0314   28.5060 C   0  0  0  0  0  0  0  0  0  0  0  0
    5.6538   10.7257   28.1839 C   0  0  0  0  0  0  0  0  0  0  0  0
    5.9549   11.7360   29.3001 C   0  0  0  0  0  0  0  0  0  0  0  0
    5.6951   11.4342   26.8108 C   0  0  0  0  0  0  0  0  0  0  0  0
    6.8486   11.0826   25.9077 C   0  0  0  0  0  0  0  0  0  0  0  0
    7.2744    9.8379   25.6662 C   0  0  0  0  0  0  0  0  0  0  0  0
    8.2959    9.5007   24.8246 N   0  0  0  0  0  0  0  0  0  0  0  0
    9.0069   10.3725   24.0778 N   0  0  0  0  0  0  0  0  0  0  0  0
    8.6906   11.6225   24.1969 C   0  0  0  0  0  0  0  0  0  0  0  0
    7.6093   12.1029   25.1338 C   0  0  0  0  0  0  0  0  0  0  0  0
    7.4339   13.7623   25.1664 S   0  0  0  0  0  0  0  0  0  0  0  0
  1  2  1  0
  2  3  1  0
  2  4  1  0
  4  5  1  0
  5  6  2  0
  6  7  1  0
  7  8  1  0
  8  9  2  0
  9 10  1  0
 10 11  2  0
 10  5  1  0
M  END
>  <inchikey>  (190) 
FKTAAXVJSFCNDC-UHFFFAOYSA-N

>  <energy_score>  (190) 
-22.765337

>  <subsites>  (190) 
1 - Active Site

>  <alias>  (190) 
C82692-P296

>  <tags>  (190) 
openbind_a71ev2a_c1_scaffolds,BulkDock Fragalysis export,openbind_a71ev2a_c1_knitwork_impure,fragmenstein_placed

>  <distance_score>  (190) 
0.949544

>  <placement_batch>  (190) 
openbind_a71ev2a_c1_knitwork_impure

>  <name>  (190) 
C82692-P296

>  <ref_mols>  (190) 
A4311a,A0556a

>  <smiles>  (190) 
CC(C)Cc1c[nH]ncc1=S

>  <HIPPO Compound ID>  (190) 
12439

>  <HIPPO Pose ID>  (190) 
377936

>  <ref_pdb>  (190) 
A1778a

$$$$
C1800-P296
     RDKit          3D

 16 18  0  0  0  0  0  0  0  0999 V2000
    9.3302   12.7477   23.0782 C   0  0  0  0  0  0  0  0  0  0  0  0
    9.0249   11.5639   23.6641 N   0  0  0  0  0  0  0  0  0  0  0  0
    8.0180   11.5498   24.5633 C   0  0  0  0  0  0  0  0  0  0  0  0
    7.2870   12.6870   24.8841 C   0  0  0  0  0  0  0  0  0  0  0  0
    7.6211   13.8828   24.2505 C   0  0  0  0  0  0  0  0  0  0  0  0
    8.6819   13.9451   23.3465 C   0  0  0  0  0  0  0  0  0  0  0  0
    9.1086   15.3000   22.8171 C   0  0  0  0  0  0  0  0  0  0  0  0
   10.4960   15.6907   23.3433 C   0  0  0  0  0  0  0  0  0  0  0  0
   11.6351   15.2302   22.4478 C   0  0  0  0  0  0  0  0  0  0  0  0
   11.4310   15.6823   21.0837 N   0  0  0  0  0  0  0  0  0  0  0  0
   10.2182   15.1126   20.5097 C   0  0  0  0  0  0  0  0  0  0  0  0
    8.9754   15.4994   21.3022 C   0  0  0  0  0  0  0  0  0  0  0  0
    6.1430   12.6564   25.8522 C   0  0  0  0  0  0  0  0  0  0  0  0
    6.2810   11.5400   26.8730 C   0  0  0  0  0  0  0  0  0  0  0  0
    6.5979   10.2145   26.2068 C   0  0  0  0  0  0  0  0  0  0  0  0
    7.8122   10.2613   25.2958 C   0  0  0  0  0  0  0  0  0  0  0  0
  1  2  2  0
  2  3  1  0
  3  4  2  0
  4  5  1  0
  5  6  2  0
  6  7  1  0
  7  8  1  0
  8  9  1  0
  9 10  1  0
 10 11  1  0
 11 12  1  0
  4 13  1  0
 13 14  1  0
 14 15  1  0
 15 16  1  0
  6  1  1  0
 12  7  1  0
 16  3  1  0
M  END
>  <inchikey>  (191) 
MTFCVKLEKLKXNT-UHFFFAOYSA-N

>  <energy_score>  (191) 
-21.110994

>  <subsites>  (191) 
1 - Active Site

>  <alias>  (191) 
C1800-P296

>  <tags>  (191) 
openbind_a71ev2a_c1_scaffolds,BulkDock Fragalysis export,openbind_a71ev2a_c1_knitwork_impure,fragmenstein_placed

>  <distance_score>  (191) 
0.982107

>  <placement_batch>  (191) 
openbind_a71ev2a_c1_knitwork_impure

>  <name>  (191) 
C1800-P296

>  <ref_mols>  (191) 
A4311a,A0556a

>  <smiles>  (191) 
c1nc2c(cc1C1CCNCC1)CCCC2

>  <HIPPO Compound ID>  (191) 
6343

>  <HIPPO Pose ID>  (191) 
377994

>  <ref_pdb>  (191) 
A1778a

$$$$
C6268-P306
     RDKit          3D

 12 13  0  0  0  0  0  0  0  0999 V2000
   10.3217   15.8236   20.8096 C   0  0  0  0  0  0  0  0  0  0  0  0
   11.4196   15.2251   21.4070 C   0  0  0  0  0  0  0  0  0  0  0  0
   11.2337   14.4654   22.5582 C   0  0  0  0  0  0  0  0  0  0  0  0
    9.9392   14.2744   23.0513 C   0  0  0  0  0  0  0  0  0  0  0  0
    9.6330   13.3549   24.2297 C   0  0  1  0  0  0  0  0  0  0  0  0
    8.1170   13.0038   24.2850 C   0  0  0  0  0  0  0  0  0  0  0  0
    7.6751   11.9257   25.1747 N   0  0  0  0  0  0  0  0  0  0  0  0
    8.3402   10.6491   24.9451 C   0  0  0  0  0  0  0  0  0  0  0  0
    9.4426   10.5890   23.8933 C   0  0  0  0  0  0  0  0  0  0  0  0
   10.6970   11.8520   24.2058 S   0  0  0  0  0  0  0  0  0  0  0  0
    8.8767   14.9087   22.5014 N   0  0  0  0  0  0  0  0  0  0  0  0
    9.0930   15.6805   21.4176 C   0  0  0  0  0  0  0  0  0  0  0  0
  1  2  2  0
  2  3  1  0
  3  4  2  0
  5  4  1  6
  5  6  1  0
  6  7  1  0
  7  8  1  0
  8  9  1  0
  9 10  1  0
  4 11  1  0
 11 12  2  0
 12  1  1  0
 10  5  1  0
M  END
>  <inchikey>  (192) 
IXXWILBFBCPULP-UHFFFAOYSA-N

>  <energy_score>  (192) 
-20.168528

>  <subsites>  (192) 
1 - Active Site

>  <alias>  (192) 
C6268-P306

>  <tags>  (192) 
openbind_a71ev2a_c1_scaffolds,BulkDock Fragalysis export,openbind_a71ev2a_c1_knitwork_impure,fragmenstein_placed

>  <distance_score>  (192) 
0.986412

>  <placement_batch>  (192) 
openbind_a71ev2a_c1_knitwork_impure

>  <name>  (192) 
C6268-P306

>  <ref_mols>  (192) 
A4322a,A2629a

>  <smiles>  (192) 
c1ccc([C@H]2CNCCS2)nc1

>  <HIPPO Compound ID>  (192) 
9132

>  <HIPPO Pose ID>  (192) 
378333

>  <ref_pdb>  (192) 
A1778a

$$$$
C6269-P306
     RDKit          3D

 12 13  0  0  0  0  0  0  0  0999 V2000
   10.3633   15.7920   21.0089 C   0  0  0  0  0  0  0  0  0  0  0  0
   11.4782   15.3391   21.6994 C   0  0  0  0  0  0  0  0  0  0  0  0
   11.2966   14.5330   22.8184 C   0  0  0  0  0  0  0  0  0  0  0  0
    9.9982   14.1582   23.1831 C   0  0  0  0  0  0  0  0  0  0  0  0
    9.7759   13.0893   24.2651 C   0  0  1  0  0  0  0  0  0  0  0  0
    8.2554   12.9331   24.5831 C   0  0  0  0  0  0  0  0  0  0  0  0
    7.7544   11.4150   25.4662 S   0  0  0  0  0  0  0  0  0  0  0  0
    8.7432   10.2102   24.5466 C   0  0  0  0  0  0  0  0  0  0  0  0
    9.6011   10.7924   23.4446 C   0  0  0  0  0  0  0  0  0  0  0  0
   10.5142   11.8380   23.9072 N   0  0  0  0  0  0  0  0  0  0  0  0
    8.9097   14.6174   22.5261 N   0  0  0  0  0  0  0  0  0  0  0  0
    9.1151   15.4455   21.4833 C   0  0  0  0  0  0  0  0  0  0  0  0
  1  2  2  0
  2  3  1  0
  3  4  2  0
  5  4  1  6
  5  6  1  0
  6  7  1  0
  7  8  1  0
  8  9  1  0
  9 10  1  0
  4 11  1  0
 11 12  2  0
 12  1  1  0
 10  5  1  0
M  END
>  <inchikey>  (193) 
UKIYNEQFJFUCIO-UHFFFAOYSA-N

>  <energy_score>  (193) 
-18.325802

>  <subsites>  (193) 
1 - Active Site

>  <alias>  (193) 
C6269-P306

>  <tags>  (193) 
openbind_a71ev2a_c1_scaffolds,BulkDock Fragalysis export,openbind_a71ev2a_c1_knitwork_impure,fragmenstein_placed

>  <distance_score>  (193) 
0.890667

>  <placement_batch>  (193) 
openbind_a71ev2a_c1_knitwork_impure

>  <name>  (193) 
C6269-P306

>  <ref_mols>  (193) 
A4322a,A2629a

>  <smiles>  (193) 
c1ccc([C@H]2CSCCN2)nc1

>  <HIPPO Compound ID>  (193) 
8889

>  <HIPPO Pose ID>  (193) 
378334

>  <ref_pdb>  (193) 
A1778a

$$$$
C7182-P153
     RDKit          3D

 22 23  0  0  0  0  0  0  0  0999 V2000
    9.3588    9.8945   23.5533 C   0  0  0  0  0  0  0  0  0  0  0  0
    8.4393   10.4760   24.5595 C   0  0  0  0  0  0  0  0  0  0  0  0
    7.5844    9.8250   25.4156 C   0  0  0  0  0  0  0  0  0  0  0  0
    6.9618   10.8189   26.1811 C   0  0  0  0  0  0  0  0  0  0  0  0
    5.9602   10.5529   27.0645 N   0  0  0  0  0  0  0  0  0  0  0  0
    5.3435   11.4352   28.1865 C   0  0  0  0  0  0  0  0  0  0  0  0
    5.6521   12.4921   28.5725 O   0  0  0  0  0  0  0  0  0  0  0  0
    4.1097   10.6597   28.6602 C   0  0  0  0  0  0  0  0  0  0  0  0
    3.3412   11.1677   29.8880 C   0  0  1  0  0  0  0  0  0  0  0  0
    3.2067   12.6868   29.9800 C   0  0  0  0  0  0  0  0  0  0  0  0
    1.9395   10.5622   29.8748 C   0  0  0  0  0  0  0  0  0  0  0  0
    1.2871   10.8076   31.0296 F   0  0  0  0  0  0  0  0  0  0  0  0
    1.9829    9.2212   29.7108 F   0  0  0  0  0  0  0  0  0  0  0  0
    1.2005   11.0594   28.8584 F   0  0  0  0  0  0  0  0  0  0  0  0
    7.4562   12.0207   25.8965 N   0  0  0  0  0  0  0  0  0  0  0  0
    8.2557   11.8131   24.8230 N   0  0  0  0  0  0  0  0  0  0  0  0
    8.8204   12.9397   24.0837 C   0  0  0  0  0  0  0  0  0  0  0  0
   10.1988   13.3321   24.6275 C   0  0  0  0  0  0  0  0  0  0  0  0
   10.8286   14.4397   23.7875 C   0  0  0  0  0  0  0  0  0  0  0  0
    9.9054   15.6472   23.6746 C   0  0  0  0  0  0  0  0  0  0  0  0
    8.5218   15.2684   23.1521 C   0  0  0  0  0  0  0  0  0  0  0  0
    7.8879   14.1583   23.9900 C   0  0  0  0  0  0  0  0  0  0  0  0
  1  2  1  0
  2  3  2  0
  3  4  1  0
  4  5  1  0
  5  6  1  0
  6  7  2  0
  6  8  1  0
  8  9  1  0
  9 10  1  6
  9 11  1  0
 11 12  1  0
 11 13  1  0
 11 14  1  0
  4 15  2  0
 15 16  1  0
 16 17  1  0
 17 18  1  0
 18 19  1  0
 19 20  1  0
 20 21  1  0
 21 22  1  0
 16  2  1  0
 22 17  1  0
M  END
>  <inchikey>  (194) 
PLRNRTQFDDEAPK-UHFFFAOYSA-N

>  <energy_score>  (194) 
-9.039998

>  <subsites>  (194) 
1 - Active Site

>  <alias>  (194) 
C7182-P153

>  <tags>  (194) 
openbind_a71ev2a_c1_scaffolds,BulkDock Fragalysis export,openbind_a71ev2a_c1_knitwork_impure,fragmenstein_placed

>  <distance_score>  (194) 
0.968147

>  <placement_batch>  (194) 
openbind_a71ev2a_c1_knitwork_impure

>  <name>  (194) 
C7182-P153

>  <ref_mols>  (194) 
A1445a,A3207a

>  <smiles>  (194) 
Cc1cc(NC(=O)C[C@@H](C)C(F)(F)F)nn1C1CCCCC1

>  <HIPPO Compound ID>  (194) 
875

>  <HIPPO Pose ID>  (194) 
378542

>  <ref_pdb>  (194) 
A1778a

$$$$
C7646-P373
     RDKit          3D

 13 14  0  0  0  0  0  0  0  0999 V2000
    5.7918   15.8427   22.0637 N   0  0  0  0  0  0  0  0  0  0  0  0
    7.2163   15.0547   22.4590 S   0  0  0  0  0  0  0  0  0  0  0  0
    8.2780   15.8572   21.9059 O   0  0  0  0  0  0  0  0  0  0  0  0
    7.0224   13.6762   22.0627 O   0  0  0  0  0  0  0  0  0  0  0  0
    7.1958   15.2425   24.2391 C   0  0  0  0  0  0  0  0  0  0  0  0
    8.5394   14.9535   24.9076 C   0  0  0  0  0  0  0  0  0  0  0  0
    9.3480   13.7549   24.3961 C   0  0  0  0  0  0  0  0  0  0  0  0
    8.9267   12.4281   24.8008 N   0  0  0  0  0  0  0  0  0  0  0  0
    9.3861   11.3980   23.8476 C   0  0  0  0  0  0  0  0  0  0  0  0
    8.4776   10.2455   24.1111 C   0  0  1  0  0  0  0  0  0  0  0  0
    8.1340    9.7635   25.4761 C   0  0  0  0  0  0  0  0  0  0  0  0
    7.2982   10.7827   24.8443 C   0  0  1  0  0  0  0  0  0  0  0  0
    7.5013   12.2316   25.0495 C   0  0  0  0  0  0  0  0  0  0  0  0
  1  2  1  0
  2  3  2  0
  2  4  2  0
  2  5  1  0
  5  6  1  0
  6  7  1  0
  7  8  1  0
  8  9  1  0
 10  9  1  1
 10 11  1  0
 12 11  1  1
 12 13  1  0
 13  8  1  0
 12 10  1  0
M  END
>  <inchikey>  (195) 
WRGUXZFLVPHPPA-UHFFFAOYSA-N

>  <energy_score>  (195) 
-75.095235

>  <subsites>  (195) 
1 - Active Site

>  <alias>  (195) 
C7646-P373

>  <tags>  (195) 
openbind_a71ev2a_c1_scaffolds,BulkDock Fragalysis export,openbind_a71ev2a_c1_knitwork_impure,fragmenstein_placed

>  <distance_score>  (195) 
0.95526

>  <placement_batch>  (195) 
openbind_a71ev2a_c1_knitwork_impure

>  <name>  (195) 
C7646-P373

>  <ref_mols>  (195) 
A4461a,A0719a

>  <smiles>  (195) 
NS(=O)(=O)CCCN1C[C@H]2C[C@H]2C1

>  <HIPPO Compound ID>  (195) 
12144

>  <HIPPO Pose ID>  (195) 
378994

>  <ref_pdb>  (195) 
A1778a

$$$$
C7653-P373
     RDKit          3D

 13 13  0  0  0  0  0  0  0  0999 V2000
   12.0713   14.8323   23.2835 C   0  0  0  0  0  0  0  0  0  0  0  0
   10.7481   15.3001   23.8665 C   0  0  0  0  0  0  0  0  0  0  0  0
    9.5813   14.9489   22.9606 C   0  0  0  0  0  0  0  0  0  0  0  0
    8.9137   13.3142   23.2439 S   0  0  0  0  0  0  0  0  0  0  0  0
    7.8430   13.1089   22.2903 O   0  0  0  0  0  0  0  0  0  0  0  0
    9.9670   12.3513   23.4630 O   0  0  0  0  0  0  0  0  0  0  0  0
    8.0766   13.5206   24.6829 N   0  0  0  0  0  0  0  0  0  0  0  0
    7.8829   12.3260   25.5566 C   0  0  1  0  0  0  0  0  0  0  0  0
    6.7828   12.7014   26.5741 C   0  0  0  0  0  0  0  0  0  0  0  0
    6.0511   11.5628   27.2063 C   0  0  0  0  0  0  0  0  0  0  0  0
    6.1908   10.2978   26.8014 C   0  0  0  0  0  0  0  0  0  0  0  0
    7.0936    9.8994   25.6852 C   0  0  0  0  0  0  0  0  0  0  0  0
    7.6080   11.0327   24.8159 C   0  0  0  0  0  0  0  0  0  0  0  0
  1  2  1  0
  2  3  1  0
  3  4  1  0
  4  5  2  0
  4  6  2  0
  4  7  1  0
  8  7  1  6
  8  9  1  0
  9 10  1  0
 10 11  2  0
 11 12  1  0
 12 13  1  0
 13  8  1  0
M  END
>  <inchikey>  (196) 
DCWKGBWLMWJEGU-UHFFFAOYSA-N

>  <energy_score>  (196) 
-32.198193

>  <subsites>  (196) 
1 - Active Site

>  <alias>  (196) 
C7653-P373

>  <tags>  (196) 
openbind_a71ev2a_c1_scaffolds,BulkDock Fragalysis export,openbind_a71ev2a_c1_knitwork_impure,fragmenstein_placed

>  <distance_score>  (196) 
0.85927

>  <placement_batch>  (196) 
openbind_a71ev2a_c1_knitwork_impure

>  <name>  (196) 
C7653-P373

>  <ref_mols>  (196) 
A4461a,A0719a

>  <smiles>  (196) 
CCCS(=O)(=O)N[C@H]1CC=CCC1

>  <HIPPO Compound ID>  (196) 
5288

>  <HIPPO Pose ID>  (196) 
378998

>  <ref_pdb>  (196) 
A1778a

$$$$
C7658-P373
     RDKit          3D

 12 12  0  0  0  0  0  0  0  0999 V2000
    6.2765   10.8714   26.6096 C   0  0  0  0  0  0  0  0  0  0  0  0
    6.8682   12.2312   26.2965 C   0  0  0  0  0  0  0  0  0  0  0  0
    7.7599   12.2127   25.0586 C   0  0  0  0  0  0  0  0  0  0  0  0
    8.6912   13.7339   24.9189 S   0  0  0  0  0  0  0  0  0  0  0  0
    7.8484   14.8212   25.3657 O   0  0  0  0  0  0  0  0  0  0  0  0
    9.9996   13.4963   25.4908 O   0  0  0  0  0  0  0  0  0  0  0  0
    8.8090   13.8777   23.2019 N   0  0  0  0  0  0  0  0  0  0  0  0
    9.7390   14.9120   22.8984 N   0  0  0  0  0  0  0  0  0  0  0  0
    9.5937   15.3901   21.5160 C   0  0  0  0  0  0  0  0  0  0  0  0
   10.9029   16.1096   21.2702 C   0  0  0  0  0  0  0  0  0  0  0  0
   11.9125   15.1928   21.9211 C   0  0  0  0  0  0  0  0  0  0  0  0
   11.1477   14.4912   23.0329 C   0  0  0  0  0  0  0  0  0  0  0  0
  1  2  1  0
  2  3  1  0
  3  4  1  0
  4  5  2  0
  4  6  2  0
  4  7  1  0
  7  8  1  0
  8  9  1  0
  9 10  1  0
 10 11  1  0
 11 12  1  0
 12  8  1  0
M  END
>  <inchikey>  (197) 
JHPLEUYNZYOKAC-UHFFFAOYSA-N

>  <energy_score>  (197) 
-23.010176

>  <subsites>  (197) 
1 - Active Site

>  <alias>  (197) 
C7658-P373

>  <tags>  (197) 
openbind_a71ev2a_c1_scaffolds,BulkDock Fragalysis export,openbind_a71ev2a_c1_knitwork_impure,fragmenstein_placed

>  <distance_score>  (197) 
0.989989

>  <placement_batch>  (197) 
openbind_a71ev2a_c1_knitwork_impure

>  <name>  (197) 
C7658-P373

>  <ref_mols>  (197) 
A4461a,A0719a

>  <smiles>  (197) 
CCCS(=O)(=O)NN1CCCC1

>  <HIPPO Compound ID>  (197) 
4645

>  <HIPPO Pose ID>  (197) 
379001

>  <ref_pdb>  (197) 
A1778a

$$$$
C7672-P373
     RDKit          3D

 13 13  0  0  0  0  0  0  0  0999 V2000
   12.0377   14.8358   23.2781 C   0  0  0  0  0  0  0  0  0  0  0  0
   10.7042   15.3490   23.7967 C   0  0  0  0  0  0  0  0  0  0  0  0
    9.5581   14.9656   22.8759 C   0  0  0  0  0  0  0  0  0  0  0  0
    8.8565   13.3592   23.2317 S   0  0  0  0  0  0  0  0  0  0  0  0
    7.8215   13.1021   22.2531 O   0  0  0  0  0  0  0  0  0  0  0  0
    9.8913   12.4055   23.5556 O   0  0  0  0  0  0  0  0  0  0  0  0
    7.9532   13.6695   24.6103 N   0  0  0  0  0  0  0  0  0  0  0  0
    7.6591   12.5597   25.5577 C   0  0  0  0  0  0  0  0  0  0  0  0
    6.4251   12.9890   26.3500 C   0  0  0  0  0  0  0  0  0  0  0  0
    6.0540   12.0457   27.4703 C   0  0  0  0  0  0  0  0  0  0  0  0
    5.6116   10.4148   26.8563 S   0  0  0  0  0  0  0  0  0  0  0  0
    7.0456   10.0655   25.8187 C   0  0  0  0  0  0  0  0  0  0  0  0
    7.5667   11.1779   24.9363 C   0  0  0  0  0  0  0  0  0  0  0  0
  1  2  1  0
  2  3  1  0
  3  4  1  0
  4  5  2  0
  4  6  2  0
  4  7  1  0
  7  8  1  0
  8  9  1  0
  9 10  1  0
 10 11  1  0
 11 12  1  0
 12 13  1  0
 13  8  1  0
M  END
>  <inchikey>  (198) 
QBKDTAGNELZKNO-UHFFFAOYSA-N

>  <energy_score>  (198) 
-37.346659

>  <subsites>  (198) 
1 - Active Site

>  <alias>  (198) 
C7672-P373

>  <tags>  (198) 
openbind_a71ev2a_c1_scaffolds,BulkDock Fragalysis export,openbind_a71ev2a_c1_knitwork_impure,fragmenstein_placed

>  <distance_score>  (198) 
0.934883

>  <placement_batch>  (198) 
openbind_a71ev2a_c1_knitwork_impure

>  <name>  (198) 
C7672-P373

>  <ref_mols>  (198) 
A4461a,A0719a

>  <smiles>  (198) 
CCCS(=O)(=O)NC1CCSCC1

>  <HIPPO Compound ID>  (198) 
3782

>  <HIPPO Pose ID>  (198) 
379007

>  <ref_pdb>  (198) 
A1778a

$$$$
C7674-P373
     RDKit          3D

 13 14  0  0  0  0  0  0  0  0999 V2000
    5.5370   15.3699   21.9155 N   0  0  0  0  0  0  0  0  0  0  0  0
    7.0124   14.7253   22.3914 S   0  0  0  0  0  0  0  0  0  0  0  0
    8.0089   15.5704   21.7790 O   0  0  0  0  0  0  0  0  0  0  0  0
    6.9247   13.3174   22.0837 O   0  0  0  0  0  0  0  0  0  0  0  0
    6.9353   15.0514   24.1457 C   0  0  0  0  0  0  0  0  0  0  0  0
    8.3123   15.0226   24.7899 C   0  0  0  0  0  0  0  0  0  0  0  0
    8.5978   13.7319   25.5341 C   0  0  0  0  0  0  0  0  0  0  0  0
    8.4548   12.5437   24.7230 N   0  0  0  0  0  0  0  0  0  0  0  0
    9.5907   12.3044   23.8143 C   0  0  0  0  0  0  0  0  0  0  0  0
    9.4967   10.8079   23.4964 C   0  0  0  0  0  0  0  0  0  0  0  0
    8.8480   10.1743   24.6718 C   0  0  2  0  0  0  0  0  0  0  0  0
    7.3967   10.2538   25.0188 C   0  0  0  0  0  0  0  0  0  0  0  0
    8.3088   11.3035   25.4897 C   0  0  2  0  0  0  0  0  0  0  0  0
  1  2  1  0
  2  3  2  0
  2  4  2  0
  2  5  1  0
  5  6  1  0
  6  7  1  0
  7  8  1  0
  8  9  1  0
  9 10  1  0
 11 10  1  6
 11 12  1  0
 13 12  1  6
 13  8  1  0
 13 11  1  0
M  END
>  <inchikey>  (199) 
KKPJMJAAGWYOGV-UHFFFAOYSA-N

>  <energy_score>  (199) 
-79.198687

>  <subsites>  (199) 
1 - Active Site

>  <alias>  (199) 
C7674-P373

>  <tags>  (199) 
openbind_a71ev2a_c1_scaffolds,BulkDock Fragalysis export,openbind_a71ev2a_c1_knitwork_impure,fragmenstein_placed

>  <distance_score>  (199) 
0.98012

>  <placement_batch>  (199) 
openbind_a71ev2a_c1_knitwork_impure

>  <name>  (199) 
C7674-P373

>  <ref_mols>  (199) 
A4461a,A0719a

>  <smiles>  (199) 
NS(=O)(=O)CCCN1CC[C@@H]2C[C@@H]21

>  <HIPPO Compound ID>  (199) 
23517

>  <HIPPO Pose ID>  (199) 
379008

>  <ref_pdb>  (199) 
A1778a

$$$$
C18930-P134
     RDKit          3D

 16 17  0  0  0  0  0  0  0  0999 V2000
    4.7839   16.9506   26.1914 C   0  0  0  0  0  0  0  0  0  0  0  0
    5.1686   15.6824   25.6768 O   0  0  0  0  0  0  0  0  0  0  0  0
    6.2605   15.8048   24.7609 C   0  0  0  0  0  0  0  0  0  0  0  0
    6.5342   14.4702   24.0728 C   0  0  0  0  0  0  0  0  0  0  0  0
    7.1315   13.2152   25.2516 S   0  0  0  0  0  0  0  0  0  0  0  0
    8.7795   12.8003   24.7339 C   0  0  0  0  0  0  0  0  0  0  0  0
    9.6792   13.7121   24.1415 C   0  0  0  0  0  0  0  0  0  0  0  0
   11.0490   13.4387   24.0837 C   0  0  0  0  0  0  0  0  0  0  0  0
   11.4662   12.2567   24.6501 C   0  0  0  0  0  0  0  0  0  0  0  0
   10.5752   11.2964   25.1182 C   0  0  0  0  0  0  0  0  0  0  0  0
    9.2261   11.5393   25.1608 C   0  0  0  0  0  0  0  0  0  0  0  0
   11.2320   10.1546   25.5595 N   0  0  0  0  0  0  0  0  0  0  0  0
   12.5931   10.3214   25.4970 C   0  0  0  0  0  0  0  0  0  0  0  0
   13.4644    9.5377   25.8027 O   0  0  0  0  0  0  0  0  0  0  0  0
   12.8094   11.7287   24.8921 C   0  0  0  0  0  0  0  0  0  0  0  0
   13.8782   12.2094   24.6007 O   0  0  0  0  0  0  0  0  0  0  0  0
  1  2  1  0
  2  3  1  0
  3  4  1  0
  4  5  1  0
  5  6  1  0
  6  7  2  0
  7  8  1  0
  8  9  2  0
  9 10  1  0
 10 11  2  0
 10 12  1  0
 12 13  1  0
 13 14  2  0
 13 15  1  0
 15 16  2  0
 11  6  1  0
 15  9  1  0
M  END
>  <inchikey>  (200) 
UWXVEDCEWYGTRJ-UHFFFAOYSA-N

>  <energy_score>  (200) 
-18.771587

>  <subsites>  (200) 
1 - Active Site

>  <alias>  (200) 
C18930-P134

>  <tags>  (200) 
openbind_a71ev2a_c1_scaffolds,BulkDock Fragalysis export,openbind_a71ev2a_c1_knitwork_impure,fragmenstein_placed

>  <distance_score>  (200) 
0.982808

>  <placement_batch>  (200) 
openbind_a71ev2a_c1_knitwork_impure

>  <name>  (200) 
C18930-P134

>  <ref_mols>  (200) 
A3975a,A2513a

>  <smiles>  (200) 
COCCSc1ccc2c(c1)NC(=O)C2=O

>  <HIPPO Compound ID>  (200) 
34811

>  <HIPPO Pose ID>  (200) 
379914

>  <ref_pdb>  (200) 
A1778a

$$$$
C2397-P338
     RDKit          3D

 15 15  0  0  0  0  0  0  0  0999 V2000
   10.6558   15.3307   19.6196 C   0  0  0  0  0  0  0  0  0  0  0  0
   10.3033   15.9947   20.9485 C   0  0  0  0  0  0  0  0  0  0  0  0
   11.4941   15.9444   21.9052 C   0  0  0  0  0  0  0  0  0  0  0  0
    8.9961   15.4328   21.5443 C   0  0  0  0  0  0  0  0  0  0  0  0
    9.1608   14.2416   22.4835 C   0  0  0  0  0  0  0  0  0  0  0  0
    7.9696   13.4613   22.6127 O   0  0  0  0  0  0  0  0  0  0  0  0
    6.8690   14.0789   23.2760 C   0  0  0  0  0  0  0  0  0  0  0  0
    6.9458   14.0210   24.8225 C   0  0  1  0  0  0  0  0  0  0  0  0
    7.8642   12.8860   25.2925 C   0  0  0  0  0  0  0  0  0  0  0  0
    7.2790   15.4226   25.4184 C   0  0  2  0  0  0  0  0  0  0  0  0
    7.6333   15.3833   26.9159 C   0  0  0  0  0  0  0  0  0  0  0  0
    7.8974   16.7847   27.4666 C   0  0  0  0  0  0  0  0  0  0  0  0
    6.7359   17.7195   27.1581 C   0  0  0  0  0  0  0  0  0  0  0  0
    6.3759   17.6843   25.6793 C   0  0  0  0  0  0  0  0  0  0  0  0
    6.1212   16.3182   25.2242 N   0  0  0  0  0  0  0  0  0  0  0  0
  1  2  1  0
  2  3  1  0
  2  4  1  0
  4  5  1  0
  5  6  1  0
  6  7  1  0
  7  8  1  0
  8  9  1  6
  8 10  1  0
 10 11  1  1
 11 12  1  0
 12 13  1  0
 13 14  1  0
 14 15  1  0
 15 10  1  0
M  END
>  <inchikey>  (201) 
HDCUDRUHFXHSNY-UHFFFAOYSA-N

>  <energy_score>  (201) 
-40.139135

>  <subsites>  (201) 
1 - Active Site

>  <alias>  (201) 
C2397-P338

>  <tags>  (201) 
openbind_a71ev2a_c1_scaffolds,BulkDock Fragalysis export,openbind_a71ev2a_c1_knitwork_impure,fragmenstein_placed

>  <distance_score>  (201) 
0.981474

>  <placement_batch>  (201) 
openbind_a71ev2a_c1_knitwork_impure

>  <name>  (201) 
C2397-P338

>  <ref_mols>  (201) 
A4237a,A1775a,A0875a

>  <smiles>  (201) 
CC(C)CCOC[C@@H](C)[C@@H]1CCCCN1

>  <HIPPO Compound ID>  (201) 
15735

>  <HIPPO Pose ID>  (201) 
380331

>  <ref_pdb>  (201) 
A1778a

$$$$
C9375-P358
     RDKit          3D

 14 14  0  0  0  0  0  0  0  0999 V2000
   10.5943   15.7725   19.5717 C   0  0  0  0  0  0  0  0  0  0  0  0
   10.9237   14.9449   20.7985 C   0  0  1  0  0  0  0  0  0  0  0  0
   11.9114   15.5901   21.6633 C   0  0  0  0  0  0  0  0  0  0  0  0
   12.5404   15.8952   22.5865 N   0  0  0  0  0  0  0  0  0  0  0  0
    9.6783   14.6768   21.6691 C   0  0  0  0  0  0  0  0  0  0  0  0
   10.0911   13.9961   22.9249 N   0  0  0  0  0  0  0  0  0  0  0  0
    8.9776   13.7877   24.1286 S   0  0  0  0  0  0  0  0  0  0  0  0
    7.9005   14.7288   23.9831 O   0  0  0  0  0  0  0  0  0  0  0  0
    9.7457   13.6938   25.3480 O   0  0  0  0  0  0  0  0  0  0  0  0
    8.3749   12.2622   23.7719 N   0  0  0  0  0  0  0  0  0  0  0  0
    7.4926   11.7436   24.8435 C   0  0  0  0  0  0  0  0  0  0  0  0
    7.6121   10.2341   24.8058 C   0  0  0  0  0  0  0  0  0  0  0  0
    8.7206    9.9035   23.8303 C   0  0  0  0  0  0  0  0  0  0  0  0
    9.3702   11.2196   23.4630 C   0  0  0  0  0  0  0  0  0  0  0  0
  2  1  1  6
  2  3  1  0
  3  4  3  0
  2  5  1  0
  5  6  1  0
  6  7  1  0
  7  8  2  0
  7  9  2  0
  7 10  1  0
 10 11  1  0
 11 12  1  0
 12 13  1  0
 13 14  1  0
 14 10  1  0
M  END
>  <inchikey>  (202) 
AJLXANOZRCJDLS-UHFFFAOYSA-N

>  <energy_score>  (202) 
-20.567376

>  <subsites>  (202) 
1 - Active Site

>  <alias>  (202) 
C9375-P358

>  <tags>  (202) 
openbind_a71ev2a_c1_scaffolds,BulkDock Fragalysis export,openbind_a71ev2a_c1_knitwork_impure,fragmenstein_placed

>  <distance_score>  (202) 
0.979575

>  <placement_batch>  (202) 
openbind_a71ev2a_c1_knitwork_impure

>  <name>  (202) 
C9375-P358

>  <ref_mols>  (202) 
A0719a,A4421a

>  <smiles>  (202) 
C[C@@H](C#N)CNS(=O)(=O)N1CCCC1

>  <HIPPO Compound ID>  (202) 
21158

>  <HIPPO Pose ID>  (202) 
380386

>  <ref_pdb>  (202) 
A1778a

$$$$
C9378-P358
     RDKit          3D

 15 15  0  0  0  0  0  0  0  0999 V2000
   11.3668   13.0436   24.3931 C   0  0  0  0  0  0  0  0  0  0  0  0
   10.4546   14.1591   24.8520 C   0  0  0  0  0  0  0  0  0  0  0  0
    9.3168   14.5512   23.8807 C   0  0  2  0  0  0  0  0  0  0  0  0
    8.6428   15.6090   24.5997 O   0  0  0  0  0  0  0  0  0  0  0  0
    8.1374   13.5296   23.7665 C   0  0  0  0  0  0  0  0  0  0  0  0
    7.2835   13.6482   22.8759 O   0  0  0  0  0  0  0  0  0  0  0  0
    7.9324   12.4751   24.8582 C   0  0  2  0  0  0  0  0  0  0  0  0
    8.0458   11.0562   24.3423 C   0  0  0  0  0  0  0  0  0  0  0  0
    7.1093   10.2534   25.2234 C   0  0  0  0  0  0  0  0  0  0  0  0
    6.3152   11.2619   26.0272 C   0  0  0  0  0  0  0  0  0  0  0  0
    6.5521   12.5564   25.3986 N   0  0  0  0  0  0  0  0  0  0  0  0
    9.8486   15.0919   22.4780 C   0  0  0  0  0  0  0  0  0  0  0  0
   11.2324   15.7848   22.5746 C   0  0  0  0  0  0  0  0  0  0  0  0
   10.0200   13.9550   21.4770 C   0  0  0  0  0  0  0  0  0  0  0  0
    8.8853   16.0787   21.7639 C   0  0  0  0  0  0  0  0  0  0  0  0
  1  2  1  0
  2  3  1  0
  3  4  1  1
  3  5  1  0
  5  6  2  0
  7  5  1  6
  7  8  1  0
  8  9  1  0
  9 10  1  0
 10 11  1  0
  3 12  1  0
 12 13  1  0
 12 14  1  0
 12 15  1  0
 11  7  1  0
M  END
>  <inchikey>  (203) 
NBHXHSMIGQMUER-UHFFFAOYSA-N

>  <energy_score>  (203) 
-21.063486

>  <subsites>  (203) 
1 - Active Site

>  <alias>  (203) 
C9378-P358

>  <tags>  (203) 
openbind_a71ev2a_c1_scaffolds,BulkDock Fragalysis export,openbind_a71ev2a_c1_knitwork_impure,fragmenstein_placed

>  <distance_score>  (203) 
0.972523

>  <placement_batch>  (203) 
openbind_a71ev2a_c1_knitwork_impure

>  <name>  (203) 
C9378-P358

>  <ref_mols>  (203) 
A0719a,A4421a

>  <smiles>  (203) 
CC[C@](O)(C(=O)[C@@H]1CCCN1)C(C)(C)C

>  <HIPPO Compound ID>  (203) 
14078

>  <HIPPO Pose ID>  (203) 
380389

>  <ref_pdb>  (203) 
A1778a

$$$$
C9379-P358
     RDKit          3D

 14 14  0  0  0  0  0  0  0  0999 V2000
   10.9830   15.5558   19.0666 C   0  0  0  0  0  0  0  0  0  0  0  0
   11.2853   14.7659   20.3183 C   0  0  0  0  0  0  0  0  0  0  0  0
   11.6602   15.6245   21.5244 C   0  0  0  0  0  0  0  0  0  0  0  0
   11.4045   14.8621   22.8270 C   0  0  0  0  0  0  0  0  0  0  0  0
    9.9011   14.7823   23.1065 C   0  0  0  0  0  0  0  0  0  0  0  0
    9.5385   13.8319   24.2380 C   0  0  1  0  0  0  0  0  0  0  0  0
   10.2354   14.1833   25.4304 O   0  0  0  0  0  0  0  0  0  0  0  0
    8.0418   13.9377   24.5294 C   0  0  0  0  0  0  0  0  0  0  0  0
    7.5339   15.0547   24.6981 O   0  0  0  0  0  0  0  0  0  0  0  0
    7.2001   12.6764   24.6980 C   0  0  1  0  0  0  0  0  0  0  0  0
    7.8850   11.3342   24.5851 C   0  0  0  0  0  0  0  0  0  0  0  0
    7.0104   10.3850   25.3735 C   0  0  0  0  0  0  0  0  0  0  0  0
    6.1501   11.2632   26.2575 C   0  0  0  0  0  0  0  0  0  0  0  0
    6.5869   12.6381   26.0488 N   0  0  0  0  0  0  0  0  0  0  0  0
  1  2  1  0
  2  3  1  0
  3  4  1  0
  4  5  1  0
  5  6  1  0
  6  7  1  1
  6  8  1  0
  8  9  2  0
 10  8  1  1
 10 11  1  0
 11 12  1  0
 12 13  1  0
 13 14  1  0
 14 10  1  0
M  END
>  <inchikey>  (204) 
FYRXYDPVISKWNM-UHFFFAOYSA-N

>  <energy_score>  (204) 
-12.999707

>  <subsites>  (204) 
1 - Active Site

>  <alias>  (204) 
C9379-P358

>  <tags>  (204) 
openbind_a71ev2a_c1_scaffolds,BulkDock Fragalysis export,openbind_a71ev2a_c1_knitwork_impure,fragmenstein_placed

>  <distance_score>  (204) 
0.870702

>  <placement_batch>  (204) 
openbind_a71ev2a_c1_knitwork_impure

>  <name>  (204) 
C9379-P358

>  <ref_mols>  (204) 
A0719a,A4421a

>  <smiles>  (204) 
CCCCC[C@@H](O)C(=O)[C@H]1CCCN1

>  <HIPPO Compound ID>  (204) 
84544

>  <HIPPO Pose ID>  (204) 
380390

>  <ref_pdb>  (204) 
A1778a

$$$$
C9394-P358
     RDKit          3D

 13 13  0  0  0  0  0  0  0  0999 V2000
    5.8915   11.1876   26.9836 C   0  0  0  0  0  0  0  0  0  0  0  0
    6.3687   10.4484   25.9723 C   0  0  0  0  0  0  0  0  0  0  0  0
    7.4499   10.7800   24.9800 C   0  0  0  0  0  0  0  0  0  0  0  0
    8.1667   11.9617   25.3007 O   0  0  0  0  0  0  0  0  0  0  0  0
    7.4436   13.1699   25.0518 C   0  0  0  0  0  0  0  0  0  0  0  0
    8.0043   14.0169   23.9058 C   0  0  2  0  0  0  0  0  0  0  0  0
    7.2503   13.7350   22.7209 O   0  0  0  0  0  0  0  0  0  0  0  0
    9.5147   13.8097   23.6909 C   0  0  0  0  0  0  0  0  0  0  0  0
   10.1185   14.8732   22.8753 N   0  0  0  0  0  0  0  0  0  0  0  0
   11.5808   14.8440   22.9251 C   0  0  0  0  0  0  0  0  0  0  0  0
   11.9396   15.7727   21.7862 C   0  0  0  0  0  0  0  0  0  0  0  0
   10.9792   15.3532   20.6938 C   0  0  0  0  0  0  0  0  0  0  0  0
    9.7711   14.8095   21.4471 C   0  0  0  0  0  0  0  0  0  0  0  0
  1  2  2  0
  2  3  1  0
  3  4  1  0
  4  5  1  0
  5  6  1  0
  6  7  1  6
  6  8  1  0
  8  9  1  0
  9 10  1  0
 10 11  1  0
 11 12  1  0
 12 13  1  0
 13  9  1  0
M  END
>  <inchikey>  (205) 
RAJZPRJBARPLQW-UHFFFAOYSA-N

>  <energy_score>  (205) 
-65.151936

>  <subsites>  (205) 
1 - Active Site

>  <alias>  (205) 
C9394-P358

>  <tags>  (205) 
openbind_a71ev2a_c1_scaffolds,BulkDock Fragalysis export,openbind_a71ev2a_c1_knitwork_impure,fragmenstein_placed

>  <distance_score>  (205) 
0.90328

>  <placement_batch>  (205) 
openbind_a71ev2a_c1_knitwork_impure

>  <name>  (205) 
C9394-P358

>  <ref_mols>  (205) 
A0719a,A4421a

>  <smiles>  (205) 
C=CCOC[C@H](O)CN1CCCC1

>  <HIPPO Compound ID>  (205) 
2400

>  <HIPPO Pose ID>  (205) 
380400

>  <ref_pdb>  (205) 
A1778a

$$$$
C7070-P174
     RDKit          3D

 14 14  0  0  0  0  0  0  0  0999 V2000
    5.1564   13.3352   26.8253 N   0  0  0  0  0  0  0  0  0  0  0  0
    5.5301   12.2476   26.6791 C   0  0  0  0  0  0  0  0  0  0  0  0
    6.1018   10.9160   26.5417 C   0  0  0  0  0  0  0  0  0  0  0  0
    6.9027   10.7205   25.2644 C   0  0  0  0  0  0  0  0  0  0  0  0
    6.7984    9.7255   24.6586 O   0  0  0  0  0  0  0  0  0  0  0  0
    7.8358   11.9440   25.0392 N   0  0  0  0  0  0  0  0  0  0  0  0
    8.7643   12.2333   23.9660 C   0  0  0  0  0  0  0  0  0  0  0  0
    8.4956   13.6237   23.3516 C   0  0  0  0  0  0  0  0  0  0  0  0
    9.4415   14.0224   22.3047 N   0  0  0  0  0  0  0  0  0  0  0  0
   10.8400   14.0259   22.7666 C   0  0  0  0  0  0  0  0  0  0  0  0
   11.7698   14.9885   22.0213 C   0  0  0  0  0  0  0  0  0  0  0  0
   11.3849   15.1576   20.5673 C   0  0  0  0  0  0  0  0  0  0  0  0
    9.9226   15.5782   20.4393 C   0  0  0  0  0  0  0  0  0  0  0  0
    9.0766   15.3003   21.6877 C   0  0  0  0  0  0  0  0  0  0  0  0
  1  2  3  0
  2  3  1  0
  3  4  1  0
  4  5  2  0
  4  6  1  0
  6  7  1  0
  7  8  1  0
  8  9  1  0
  9 10  1  0
 10 11  1  0
 11 12  1  0
 12 13  1  0
 13 14  1  0
 14  9  1  0
M  END
>  <inchikey>  (206) 
BGXAVSVRYXHJHI-UHFFFAOYSA-N

>  <energy_score>  (206) 
-6.057377

>  <subsites>  (206) 
1 - Active Site

>  <alias>  (206) 
C7070-P174

>  <tags>  (206) 
openbind_a71ev2a_c1_scaffolds,BulkDock Fragalysis export,openbind_a71ev2a_c1_knitwork_impure,fragmenstein_placed

>  <distance_score>  (206) 
0.979634

>  <placement_batch>  (206) 
openbind_a71ev2a_c1_knitwork_impure

>  <name>  (206) 
C7070-P174

>  <ref_mols>  (206) 
A3371a,A4320a

>  <smiles>  (206) 
N#CCC(=O)NCCN1CCCCC1

>  <HIPPO Compound ID>  (206) 
4528

>  <HIPPO Pose ID>  (206) 
380753

>  <ref_pdb>  (206) 
A1778a

$$$$
C2382-P437
     RDKit          3D

 15 15  0  0  0  0  0  0  0  0999 V2000
   10.2623    9.2397   24.3305 C   0  0  0  0  0  0  0  0  0  0  0  0
    8.9049    9.7596   24.7751 C   0  0  0  0  0  0  0  0  0  0  0  0
    7.9336    9.5955   23.6334 C   0  0  0  0  0  0  0  0  0  0  0  0
    8.9038   11.1895   25.3415 C   0  0  0  0  0  0  0  0  0  0  0  0
    9.7941   12.1833   24.6123 C   0  0  0  0  0  0  0  0  0  0  0  0
   11.0150   12.1122   24.8326 O   0  0  0  0  0  0  0  0  0  0  0  0
    9.2025   13.1241   23.5110 C   0  0  0  0  0  0  0  0  0  0  0  0
    7.6627   13.0282   23.4011 C   0  0  0  0  0  0  0  0  0  0  0  0
    9.8413   12.5776   22.2532 C   0  0  0  0  0  0  0  0  0  0  0  0
    9.4913   14.5745   23.7157 N   0  0  0  0  0  0  0  0  0  0  0  0
   10.7914   14.9526   24.2709 C   0  0  0  0  0  0  0  0  0  0  0  0
   11.9384   14.9170   23.2702 C   0  0  0  0  0  0  0  0  0  0  0  0
   11.6251   15.7833   22.0632 C   0  0  0  0  0  0  0  0  0  0  0  0
   10.2602   15.5400   21.4581 C   0  0  0  0  0  0  0  0  0  0  0  0
    9.1817   15.4405   22.5456 C   0  0  0  0  0  0  0  0  0  0  0  0
  1  2  1  0
  2  3  1  0
  2  4  1  0
  4  5  1  0
  5  6  2  0
  5  7  1  0
  7  8  1  0
  7  9  1  0
  7 10  1  0
 10 11  1  0
 11 12  1  0
 12 13  1  0
 13 14  1  0
 14 15  1  0
 15 10  1  0
M  END
>  <inchikey>  (207) 
BVORABRUVNAGOD-UHFFFAOYSA-N

>  <energy_score>  (207) 
-27.613115

>  <subsites>  (207) 
1 - Active Site

>  <alias>  (207) 
C2382-P437

>  <tags>  (207) 
openbind_a71ev2a_c1_scaffolds,BulkDock Fragalysis export,openbind_a71ev2a_c1_knitwork_impure,fragmenstein_placed

>  <distance_score>  (207) 
0.948997

>  <placement_batch>  (207) 
openbind_a71ev2a_c1_knitwork_impure

>  <name>  (207) 
C2382-P437

>  <ref_mols>  (207) 
A1775a,A4701a

>  <smiles>  (207) 
CC(C)CC(=O)C(C)(C)N1CCCCC1

>  <HIPPO Compound ID>  (207) 
7891

>  <HIPPO Pose ID>  (207) 
380799

>  <ref_pdb>  (207) 
A1778a

$$$$
C2408-P437
     RDKit          3D

 15 15  0  0  0  0  0  0  0  0999 V2000
    9.8880    8.9757   23.8642 C   0  0  0  0  0  0  0  0  0  0  0  0
    8.6005    9.6121   24.3601 C   0  0  0  0  0  0  0  0  0  0  0  0
    8.8094   10.8738   25.2077 C   0  0  2  0  0  0  0  0  0  0  0  0
    7.5151   11.3723   25.8320 C   0  0  0  0  0  0  0  0  0  0  0  0
    9.6846   11.9399   24.5445 C   0  0  0  0  0  0  0  0  0  0  0  0
   10.9043   11.8725   24.7927 O   0  0  0  0  0  0  0  0  0  0  0  0
    9.1390   12.9448   23.4699 C   0  0  0  0  0  0  0  0  0  0  0  0
    7.6382   12.7827   23.1583 C   0  0  0  0  0  0  0  0  0  0  0  0
    9.9141   12.5359   22.2316 C   0  0  0  0  0  0  0  0  0  0  0  0
    9.3354   14.3788   23.8298 N   0  0  0  0  0  0  0  0  0  0  0  0
   10.5409   14.7366   24.5791 C   0  0  0  0  0  0  0  0  0  0  0  0
   11.8039   14.8110   23.7312 C   0  0  0  0  0  0  0  0  0  0  0  0
   11.6126   15.8069   22.6001 C   0  0  0  0  0  0  0  0  0  0  0  0
   10.3440   15.5871   21.7995 C   0  0  0  0  0  0  0  0  0  0  0  0
    9.1367   15.3430   22.7163 C   0  0  0  0  0  0  0  0  0  0  0  0
  1  2  1  0
  2  3  1  0
  3  4  1  6
  3  5  1  0
  5  6  2  0
  5  7  1  0
  7  8  1  0
  7  9  1  0
  7 10  1  0
 10 11  1  0
 11 12  1  0
 12 13  1  0
 13 14  1  0
 14 15  1  0
 15 10  1  0
M  END
>  <inchikey>  (208) 
XJPJCIMCDCBUDM-UHFFFAOYSA-N

>  <energy_score>  (208) 
-41.376083

>  <subsites>  (208) 
1 - Active Site

>  <alias>  (208) 
C2408-P437

>  <tags>  (208) 
openbind_a71ev2a_c1_scaffolds,BulkDock Fragalysis export,openbind_a71ev2a_c1_knitwork_impure,fragmenstein_placed

>  <distance_score>  (208) 
0.982226

>  <placement_batch>  (208) 
openbind_a71ev2a_c1_knitwork_impure

>  <name>  (208) 
C2408-P437

>  <ref_mols>  (208) 
A1775a,A4701a

>  <smiles>  (208) 
CC[C@H](C)C(=O)C(C)(C)N1CCCCC1

>  <HIPPO Compound ID>  (208) 
10535

>  <HIPPO Pose ID>  (208) 
380820

>  <ref_pdb>  (208) 
A1778a

$$$$
C7634-P305
     RDKit          3D

 12 12  0  0  0  0  0  0  0  0999 V2000
   11.0852   15.5756   19.3167 C   0  0  0  0  0  0  0  0  0  0  0  0
   11.1432   15.1976   20.7867 C   0  0  0  0  0  0  0  0  0  0  0  0
    9.7712   15.2802   21.4358 C   0  0  0  0  0  0  0  0  0  0  0  0
    9.7676   14.6937   23.1265 S   0  0  0  0  0  0  0  0  0  0  0  0
    8.4959   15.0290   23.7224 O   0  0  0  0  0  0  0  0  0  0  0  0
   11.0119   15.0329   23.7800 O   0  0  0  0  0  0  0  0  0  0  0  0
    9.7693   13.0029   22.9333 N   0  0  0  0  0  0  0  0  0  0  0  0
    9.5593   12.2421   24.2058 C   0  0  0  0  0  0  0  0  0  0  0  0
    8.1322   12.3873   24.7660 C   0  0  0  0  0  0  0  0  0  0  0  0
    7.7611   11.0008   25.1818 C   0  0  0  0  0  0  0  0  0  0  0  0
    8.6314   10.0967   24.7290 C   0  0  0  0  0  0  0  0  0  0  0  0
    9.7455   10.7316   23.9709 C   0  0  0  0  0  0  0  0  0  0  0  0
  1  2  1  0
  2  3  1  0
  3  4  1  0
  4  5  2  0
  4  6  2  0
  4  7  1  0
  7  8  1  0
  8  9  1  0
  9 10  1  0
 10 11  2  0
 11 12  1  0
 12  8  1  0
M  END
>  <inchikey>  (209) 
UILMKCCWNFQJCT-UHFFFAOYSA-N

>  <energy_score>  (209) 
-34.101651

>  <subsites>  (209) 
1 - Active Site

>  <alias>  (209) 
C7634-P305

>  <tags>  (209) 
openbind_a71ev2a_c1_scaffolds,BulkDock Fragalysis export,openbind_a71ev2a_c1_knitwork_impure,fragmenstein_placed

>  <distance_score>  (209) 
0.810766

>  <placement_batch>  (209) 
openbind_a71ev2a_c1_knitwork_impure

>  <name>  (209) 
C7634-P305

>  <ref_mols>  (209) 
A4321b,A0719a

>  <smiles>  (209) 
CCCS(=O)(=O)NC1CC=CC1

>  <HIPPO Compound ID>  (209) 
27676

>  <HIPPO Pose ID>  (209) 
381471

>  <ref_pdb>  (209) 
A1778a

$$$$
C9121-P248
     RDKit          3D

 11 11  0  0  0  0  0  0  0  0999 V2000
    8.0301   10.8549   24.5840 C   0  0  0  0  0  0  0  0  0  0  0  0
    7.7872   12.3035   24.2170 C   0  0  0  0  0  0  0  0  0  0  0  0
    9.0156   13.1808   24.3359 C   0  0  0  0  0  0  0  0  0  0  0  0
   10.0320   12.8110   24.9230 O   0  0  0  0  0  0  0  0  0  0  0  0
    8.8870   14.5742   23.7332 C   0  0  0  0  0  0  0  0  0  0  0  0
    9.9738   14.8491   22.8207 N   0  0  0  0  0  0  0  0  0  0  0  0
    9.8022   14.8803   21.3897 C   0  0  0  0  0  0  0  0  0  0  0  0
   11.2216   14.9806   20.8740 C   0  0  0  0  0  0  0  0  0  0  0  0
   11.9303   15.7787   21.9552 C   0  0  0  0  0  0  0  0  0  0  0  0
   11.1764   15.4143   23.2065 C   0  0  0  0  0  0  0  0  0  0  0  0
   11.5338   15.6560   24.3490 O   0  0  0  0  0  0  0  0  0  0  0  0
  1  2  1  0
  2  3  1  0
  3  4  2  0
  3  5  1  0
  5  6  1  0
  6  7  1  0
  7  8  1  0
  8  9  1  0
  9 10  1  0
 10 11  2  0
 10  6  1  0
M  END
>  <inchikey>  (210) 
KQPUFQLGSXQISW-UHFFFAOYSA-N

>  <energy_score>  (210) 
-18.366424

>  <subsites>  (210) 
1 - Active Site

>  <alias>  (210) 
C9121-P248

>  <tags>  (210) 
openbind_a71ev2a_c1_scaffolds,BulkDock Fragalysis export,openbind_a71ev2a_c1_knitwork_impure,fragmenstein_placed

>  <distance_score>  (210) 
0.639358

>  <placement_batch>  (210) 
openbind_a71ev2a_c1_knitwork_impure

>  <name>  (210) 
C9121-P248

>  <ref_mols>  (210) 
A3956a,A1779a

>  <smiles>  (210) 
CCC(=O)CN1CCCC1=O

>  <HIPPO Compound ID>  (210) 
1811

>  <HIPPO Pose ID>  (210) 
381673

>  <ref_pdb>  (210) 
A1778a

$$$$
C9144-P248
     RDKit          3D

 13 13  0  0  0  0  0  0  0  0999 V2000
   11.4380   15.6194   24.2706 O   0  0  0  0  0  0  0  0  0  0  0  0
   11.1473   15.3587   23.1128 C   0  0  0  0  0  0  0  0  0  0  0  0
   11.9079   15.8220   21.8973 C   0  0  0  0  0  0  0  0  0  0  0  0
   11.2500   15.0685   20.7535 C   0  0  0  0  0  0  0  0  0  0  0  0
    9.8411   14.8517   21.2560 C   0  0  0  0  0  0  0  0  0  0  0  0
   10.0252   14.6648   22.6738 N   0  0  0  0  0  0  0  0  0  0  0  0
    8.9284   14.2986   23.5498 C   0  0  0  0  0  0  0  0  0  0  0  0
    9.2742   13.0907   24.4063 C   0  0  0  0  0  0  0  0  0  0  0  0
   10.4118   12.8772   24.8347 O   0  0  0  0  0  0  0  0  0  0  0  0
    8.1014   12.1968   24.7342 C   0  0  0  0  0  0  0  0  0  0  0  0
    7.7751   11.3763   23.7055 F   0  0  0  0  0  0  0  0  0  0  0  0
    6.9920   12.9145   25.0483 F   0  0  0  0  0  0  0  0  0  0  0  0
    8.3290   11.3876   25.8001 F   0  0  0  0  0  0  0  0  0  0  0  0
  1  2  2  0
  2  3  1  0
  3  4  1  0
  4  5  1  0
  5  6  1  0
  6  7  1  0
  7  8  1  0
  8  9  2  0
  8 10  1  0
 10 11  1  0
 10 12  1  0
 10 13  1  0
  6  2  1  0
M  END
>  <inchikey>  (211) 
GRCPKGYTKXKWFK-UHFFFAOYSA-N

>  <energy_score>  (211) 
-8.957829

>  <subsites>  (211) 
1 - Active Site

>  <alias>  (211) 
C9144-P248

>  <tags>  (211) 
openbind_a71ev2a_c1_scaffolds,BulkDock Fragalysis export,openbind_a71ev2a_c1_knitwork_impure,fragmenstein_placed

>  <distance_score>  (211) 
0.695556

>  <placement_batch>  (211) 
openbind_a71ev2a_c1_knitwork_impure

>  <name>  (211) 
C9144-P248

>  <ref_mols>  (211) 
A3956a,A1779a

>  <smiles>  (211) 
O=C1CCCN1CC(=O)C(F)(F)F

>  <HIPPO Compound ID>  (211) 
2390

>  <HIPPO Pose ID>  (211) 
381701

>  <ref_pdb>  (211) 
A1778a

$$$$
C13911-P248
     RDKit          3D

 15 16  0  0  0  0  0  0  0  0999 V2000
    5.5327   11.3317   26.9065 C   0  0  0  0  0  0  0  0  0  0  0  0
    6.6912   11.3792   26.0543 N   0  0  0  0  0  0  0  0  0  0  0  0
    7.0948   12.6162   25.4608 C   0  0  0  0  0  0  0  0  0  0  0  0
    8.3695   12.2534   24.7188 C   0  0  2  0  0  0  0  0  0  0  0  0
    8.6140   13.0902   23.4832 C   0  0  0  0  0  0  0  0  0  0  0  0
    8.6047   14.5776   23.8006 C   0  0  0  0  0  0  0  0  0  0  0  0
    8.8453   15.3275   22.5961 N   0  0  0  0  0  0  0  0  0  0  0  0
   10.0633   15.3142   22.0238 C   0  0  0  0  0  0  0  0  0  0  0  0
   10.1998   15.2229   20.7260 N   0  0  0  0  0  0  0  0  0  0  0  0
   11.5296   15.2973   20.4041 C   0  0  0  0  0  0  0  0  0  0  0  0
   12.3736   15.5390   21.4601 C   0  0  0  0  0  0  0  0  0  0  0  0
   11.5275   15.4399   22.9249 S   0  0  0  0  0  0  0  0  0  0  0  0
    8.2057   10.7797   24.3653 C   0  0  0  0  0  0  0  0  0  0  0  0
    7.1240   10.3105   25.2877 C   0  0  0  0  0  0  0  0  0  0  0  0
    6.6932    9.1737   25.3056 O   0  0  0  0  0  0  0  0  0  0  0  0
  1  2  1  0
  2  3  1  0
  3  4  1  0
  4  5  1  6
  5  6  1  0
  6  7  1  0
  7  8  1  0
  8  9  2  0
  9 10  1  0
 10 11  2  0
 11 12  1  0
  4 13  1  0
 13 14  1  0
 14 15  2  0
 14  2  1  0
 12  8  1  0
M  END
>  <inchikey>  (212) 
AQILHIUWLDOOHJ-UHFFFAOYSA-N

>  <energy_score>  (212) 
-58.685839

>  <subsites>  (212) 
1 - Active Site

>  <alias>  (212) 
C13911-P248

>  <tags>  (212) 
openbind_a71ev2a_c1_scaffolds,BulkDock Fragalysis export,openbind_a71ev2a_c1_knitwork_impure,fragmenstein_placed

>  <distance_score>  (212) 
0.982742

>  <placement_batch>  (212) 
openbind_a71ev2a_c1_knitwork_impure

>  <name>  (212) 
C13911-P248

>  <ref_mols>  (212) 
A3956a,A0556a

>  <smiles>  (212) 
CN1C[C@H](CCNc2nccs2)CC1=O

>  <HIPPO Compound ID>  (212) 
1361

>  <HIPPO Pose ID>  (212) 
381764

>  <ref_pdb>  (212) 
A1778a

$$$$
C11236-P200
     RDKit          3D

 22 23  0  0  0  0  0  0  0  0999 V2000
    3.0783   12.4737   17.7531 C   0  0  0  0  0  0  0  0  0  0  0  0
    2.2648   13.5983   18.3675 C   0  0  0  0  0  0  0  0  0  0  0  0
    2.6126   13.7932   19.7894 C   0  0  0  0  0  0  0  0  0  0  0  0
    3.3363   14.7255   20.3893 N   0  0  0  0  0  0  0  0  0  0  0  0
    3.5369   14.2034   21.6616 C   0  0  0  0  0  0  0  0  0  0  0  0
    4.4287   14.7949   22.7089 C   0  0  0  0  0  0  0  0  0  0  0  0
    5.6249   15.3630   22.1282 N   0  0  0  0  0  0  0  0  0  0  0  0
    7.0752   14.5880   22.3599 S   0  0  0  0  0  0  0  0  0  0  0  0
    6.7955   13.2315   21.9124 O   0  0  0  0  0  0  0  0  0  0  0  0
    7.9661   15.3325   21.4926 O   0  0  0  0  0  0  0  0  0  0  0  0
    7.1983   14.7740   23.8810 N   0  0  0  0  0  0  0  0  0  0  0  0
    8.5817   14.4149   24.4331 S   0  0  2  0  0  0  0  0  0  0  0  0
    8.5651   14.9674   26.1373 C   0  0  0  0  0  0  0  0  0  0  0  0
    9.8466   14.8239   23.8611 O   0  0  0  0  0  0  0  0  0  0  0  0
    8.8435   12.7058   24.6400 C   0  0  0  0  0  0  0  0  0  0  0  0
    9.5269   12.1366   23.4096 C   0  0  0  0  0  0  0  0  0  0  0  0
    9.8141   10.6741   23.5174 C   0  0  0  0  0  0  0  0  0  0  0  0
    8.7920    9.8702   24.2530 C   0  0  0  0  0  0  0  0  0  0  0  0
    7.9356   10.5490   25.3084 C   0  0  0  0  0  0  0  0  0  0  0  0
    7.5901   11.9751   25.0171 C   0  0  0  0  0  0  0  0  0  0  0  0
    2.7770   13.0630   21.7899 C   0  0  0  0  0  0  0  0  0  0  0  0
    2.1746   12.7980   20.6122 O   0  0  0  0  0  0  0  0  0  0  0  0
  1  2  1  0
  2  3  1  0
  3  4  2  0
  4  5  1  0
  5  6  1  0
  6  7  1  0
  7  8  1  0
  8  9  2  0
  8 10  2  0
  8 11  1  0
 11 12  2  0
 12 13  1  1
 12 14  2  0
 12 15  1  0
 15 16  1  0
 16 17  1  0
 17 18  1  0
 18 19  1  0
 19 20  1  0
  5 21  2  0
 21 22  1  0
 22  3  1  0
 20 15  1  0
M  END
>  <inchikey>  (213) 
FINIGGNJPQFVOX-UHFFFAOYSA-N

>  <energy_score>  (213) 
-68.330979

>  <subsites>  (213) 
1 - Active Site

>  <alias>  (213) 
C11236-P200

>  <tags>  (213) 
openbind_a71ev2a_c1_scaffolds,BulkDock Fragalysis export,openbind_a71ev2a_c1_knitwork_impure,fragmenstein_placed

>  <distance_score>  (213) 
0.935989

>  <placement_batch>  (213) 
openbind_a71ev2a_c1_knitwork_impure

>  <name>  (213) 
C11236-P200

>  <ref_mols>  (213) 
A3623a,A4418a,A3694a

>  <smiles>  (213) 
CCc1nc(CNS(=O)(=O)N=[S@](C)(=O)C2CCCCC2)co1

>  <HIPPO Compound ID>  (213) 
4701

>  <HIPPO Pose ID>  (213) 
381820

>  <ref_pdb>  (213) 
A1778a

$$$$
C15025-P224
     RDKit          3D

 12 12  0  0  0  0  0  0  0  0999 V2000
   11.2024   13.9850   22.7377 C   0  0  0  0  0  0  0  0  0  0  0  0
    9.7291   14.2649   22.5224 C   0  0  0  0  0  0  0  0  0  0  0  0
    8.8108   13.3230   23.2364 N   0  0  0  0  0  0  0  0  0  0  0  0
    8.9677   13.2812   24.9182 S   0  0  0  0  0  0  0  0  0  0  0  0
    8.4071   14.5246   25.3992 O   0  0  0  0  0  0  0  0  0  0  0  0
   10.3000   12.8620   25.2825 O   0  0  0  0  0  0  0  0  0  0  0  0
    7.8815   11.9905   25.4001 C   0  0  0  0  0  0  0  0  0  0  0  0
    6.7970   12.2522   26.2360 C   0  0  0  0  0  0  0  0  0  0  0  0
    6.0088   11.1940   26.6706 C   0  0  0  0  0  0  0  0  0  0  0  0
    6.3400    9.9184   26.2510 C   0  0  0  0  0  0  0  0  0  0  0  0
    7.3919    9.6398   25.4469 N   0  0  0  0  0  0  0  0  0  0  0  0
    8.1503   10.6866   25.0320 C   0  0  0  0  0  0  0  0  0  0  0  0
  1  2  1  0
  2  3  1  0
  3  4  1  0
  4  5  2  0
  4  6  2  0
  4  7  1  0
  7  8  2  0
  8  9  1  0
  9 10  2  0
 10 11  1  0
 11 12  2  0
 12  7  1  0
M  END
>  <inchikey>  (214) 
CTCJLPKYTZKXTA-UHFFFAOYSA-N

>  <energy_score>  (214) 
-16.757589

>  <subsites>  (214) 
1 - Active Site

>  <alias>  (214) 
C15025-P224

>  <tags>  (214) 
openbind_a71ev2a_c1_scaffolds,BulkDock Fragalysis export,openbind_a71ev2a_c1_knitwork_impure,fragmenstein_placed

>  <distance_score>  (214) 
0.773138

>  <placement_batch>  (214) 
openbind_a71ev2a_c1_knitwork_impure

>  <name>  (214) 
C15025-P224

>  <ref_mols>  (214) 
A3849a,A0719a

>  <smiles>  (214) 
CCNS(=O)(=O)c1cccnc1

>  <HIPPO Compound ID>  (214) 
8168

>  <HIPPO Pose ID>  (214) 
381929

>  <ref_pdb>  (214) 
A1778a

$$$$
C15027-P224
     RDKit          3D

 13 13  0  0  0  0  0  0  0  0999 V2000
   11.9872   15.0106   23.5801 C   0  0  0  0  0  0  0  0  0  0  0  0
   11.1845   14.1716   22.9140 C   0  0  0  0  0  0  0  0  0  0  0  0
    9.7671   14.5062   22.5620 C   0  0  0  0  0  0  0  0  0  0  0  0
    8.7500   13.5524   23.1657 C   0  0  0  0  0  0  0  0  0  0  0  0
    7.8405   13.0838   22.4694 O   0  0  0  0  0  0  0  0  0  0  0  0
    8.7895   13.3233   24.6829 C   0  0  1  0  0  0  0  0  0  0  0  0
    8.1010   14.4168   25.2913 O   0  0  0  0  0  0  0  0  0  0  0  0
    8.1769   11.9978   25.0934 C   0  0  0  0  0  0  0  0  0  0  0  0
    7.1014   11.9073   25.9856 C   0  0  0  0  0  0  0  0  0  0  0  0
    6.5703   10.6606   26.2718 C   0  0  0  0  0  0  0  0  0  0  0  0
    7.0491    9.5096   25.7590 N   0  0  0  0  0  0  0  0  0  0  0  0
    8.1007    9.6123   24.9171 C   0  0  0  0  0  0  0  0  0  0  0  0
    8.6876   10.8103   24.5594 C   0  0  0  0  0  0  0  0  0  0  0  0
  1  2  2  0
  2  3  1  0
  3  4  1  0
  4  5  2  0
  4  6  1  0
  6  7  1  1
  6  8  1  0
  8  9  2  0
  9 10  1  0
 10 11  2  0
 11 12  1  0
 12 13  2  0
 13  8  1  0
M  END
>  <inchikey>  (215) 
DCZHFEWOJXEGST-UHFFFAOYSA-N

>  <energy_score>  (215) 
-9.57329

>  <subsites>  (215) 
1 - Active Site

>  <alias>  (215) 
C15027-P224

>  <tags>  (215) 
openbind_a71ev2a_c1_scaffolds,BulkDock Fragalysis export,openbind_a71ev2a_c1_knitwork_impure,fragmenstein_placed

>  <distance_score>  (215) 
0.913925

>  <placement_batch>  (215) 
openbind_a71ev2a_c1_knitwork_impure

>  <name>  (215) 
C15027-P224

>  <ref_mols>  (215) 
A3849a,A0719a

>  <smiles>  (215) 
C=CCC(=O)[C@@H](O)c1ccncc1

>  <HIPPO Compound ID>  (215) 
1417

>  <HIPPO Pose ID>  (215) 
381931

>  <ref_pdb>  (215) 
A1778a

$$$$
C15036-P224
     RDKit          3D

 14 14  0  0  0  0  0  0  0  0999 V2000
   12.3422   16.1254   21.5879 N   0  0  0  0  0  0  0  0  0  0  0  0
   11.8464   15.2594   22.1757 C   0  0  0  0  0  0  0  0  0  0  0  0
   11.1403   14.2086   22.9097 C   0  0  0  0  0  0  0  0  0  0  0  0
    9.6468   14.3092   22.6059 C   0  0  0  0  0  0  0  0  0  0  0  0
    8.7732   13.2799   23.2718 N   0  0  0  0  0  0  0  0  0  0  0  0
    8.9299   13.1928   24.9518 S   0  0  0  0  0  0  0  0  0  0  0  0
   10.2627   12.7405   25.2697 O   0  0  0  0  0  0  0  0  0  0  0  0
    8.4163   14.4451   25.4587 O   0  0  0  0  0  0  0  0  0  0  0  0
    7.8244   11.9231   25.4247 C   0  0  0  0  0  0  0  0  0  0  0  0
    6.7422   12.2017   26.2575 C   0  0  0  0  0  0  0  0  0  0  0  0
    5.9428   11.1545   26.6968 C   0  0  0  0  0  0  0  0  0  0  0  0
    6.2607    9.8738   26.2833 C   0  0  0  0  0  0  0  0  0  0  0  0
    7.3107    9.5799   25.4819 N   0  0  0  0  0  0  0  0  0  0  0  0
    8.0825   10.6147   25.0659 C   0  0  0  0  0  0  0  0  0  0  0  0
  1  2  3  0
  2  3  1  0
  3  4  1  0
  4  5  1  0
  5  6  1  0
  6  7  2  0
  6  8  2  0
  6  9  1  0
  9 10  2  0
 10 11  1  0
 11 12  2  0
 12 13  1  0
 13 14  2  0
 14  9  1  0
M  END
>  <inchikey>  (216) 
BPVACFSEVJXOJC-UHFFFAOYSA-N

>  <energy_score>  (216) 
-26.338933

>  <subsites>  (216) 
1 - Active Site

>  <alias>  (216) 
C15036-P224

>  <tags>  (216) 
openbind_a71ev2a_c1_scaffolds,BulkDock Fragalysis export,openbind_a71ev2a_c1_knitwork_impure,fragmenstein_placed

>  <distance_score>  (216) 
0.733468

>  <placement_batch>  (216) 
openbind_a71ev2a_c1_knitwork_impure

>  <name>  (216) 
C15036-P224

>  <ref_mols>  (216) 
A3849a,A0719a

>  <smiles>  (216) 
N#CCCNS(=O)(=O)c1cccnc1

>  <HIPPO Compound ID>  (216) 
5378

>  <HIPPO Pose ID>  (216) 
381939

>  <ref_pdb>  (216) 
A1778a

$$$$
C15045-P224
     RDKit          3D

 15 15  0  0  0  0  0  0  0  0999 V2000
   10.9877   16.1455   20.3985 C   0  0  0  0  0  0  0  0  0  0  0  0
   11.8686   15.4194   21.0977 C   0  0  0  0  0  0  0  0  0  0  0  0
   11.9323   15.4062   22.5923 C   0  0  0  0  0  0  0  0  0  0  0  0
   11.0629   14.2932   23.1784 C   0  0  0  0  0  0  0  0  0  0  0  0
    9.5880   14.5405   22.8676 C   0  0  0  0  0  0  0  0  0  0  0  0
    8.6495   13.4888   23.3888 C   0  0  0  0  0  0  0  0  0  0  0  0
    7.8353   12.9521   22.6295 O   0  0  0  0  0  0  0  0  0  0  0  0
    8.6453   13.2292   24.8956 C   0  0  1  0  0  0  0  0  0  0  0  0
    7.9363   14.3005   25.5125 O   0  0  0  0  0  0  0  0  0  0  0  0
    8.0482   11.8886   25.2507 C   0  0  0  0  0  0  0  0  0  0  0  0
    6.9538   11.7527   26.1108 C   0  0  0  0  0  0  0  0  0  0  0  0
    6.4364   10.4894   26.3305 C   0  0  0  0  0  0  0  0  0  0  0  0
    6.9459    9.3701   25.7782 N   0  0  0  0  0  0  0  0  0  0  0  0
    8.0209    9.5195   24.9745 C   0  0  0  0  0  0  0  0  0  0  0  0
    8.5973   10.7349   24.6842 C   0  0  0  0  0  0  0  0  0  0  0  0
  1  2  2  0
  2  3  1  0
  3  4  1  0
  4  5  1  0
  5  6  1  0
  6  7  2  0
  6  8  1  0
  8  9  1  1
  8 10  1  0
 10 11  2  0
 11 12  1  0
 12 13  2  0
 13 14  1  0
 14 15  2  0
 15 10  1  0
M  END
>  <inchikey>  (217) 
FXEFZOMVZBBFDP-UHFFFAOYSA-N

>  <energy_score>  (217) 
-15.654425

>  <subsites>  (217) 
1 - Active Site

>  <alias>  (217) 
C15045-P224

>  <tags>  (217) 
openbind_a71ev2a_c1_scaffolds,BulkDock Fragalysis export,openbind_a71ev2a_c1_knitwork_impure,fragmenstein_placed

>  <distance_score>  (217) 
0.844087

>  <placement_batch>  (217) 
openbind_a71ev2a_c1_knitwork_impure

>  <name>  (217) 
C15045-P224

>  <ref_mols>  (217) 
A3849a,A0719a

>  <smiles>  (217) 
C=CCCCC(=O)[C@@H](O)c1ccncc1

>  <HIPPO Compound ID>  (217) 
11486

>  <HIPPO Pose ID>  (217) 
381945

>  <ref_pdb>  (217) 
A1778a

$$$$
C15048-P224
     RDKit          3D

 16 16  0  0  0  0  0  0  0  0999 V2000
    7.9648   14.3637   28.0727 C   0  0  0  0  0  0  0  0  0  0  0  0
    7.2131   14.6578   26.7908 C   0  0  0  0  0  0  0  0  0  0  0  0
    7.6791   13.8930   25.5152 C   0  0  2  0  0  0  0  0  0  0  0  0
    6.8494   14.4748   24.4342 N   0  0  0  0  0  0  0  0  0  0  0  0
    7.4224   14.4434   22.8604 S   0  0  0  0  0  0  0  0  0  0  0  0
    8.5602   15.3267   22.8233 O   0  0  0  0  0  0  0  0  0  0  0  0
    7.4821   13.0944   22.3644 O   0  0  0  0  0  0  0  0  0  0  0  0
    6.1118   15.2129   22.1509 N   0  0  0  0  0  0  0  0  0  0  0  0
    4.8942   14.4139   21.9411 C   0  0  0  0  0  0  0  0  0  0  0  0
    5.8323   16.5504   22.6730 C   0  0  0  0  0  0  0  0  0  0  0  0
    7.5514   12.3810   25.5912 C   0  0  0  0  0  0  0  0  0  0  0  0
    6.5166   11.7241   26.2690 C   0  0  0  0  0  0  0  0  0  0  0  0
    6.4588   10.3370   26.2359 C   0  0  0  0  0  0  0  0  0  0  0  0
    7.3400    9.5647   25.5715 N   0  0  0  0  0  0  0  0  0  0  0  0
    8.3130   10.2069   24.8913 C   0  0  0  0  0  0  0  0  0  0  0  0
    8.4653   11.5850   24.8867 C   0  0  0  0  0  0  0  0  0  0  0  0
  1  2  1  0
  3  2  1  1
  3  4  1  0
  4  5  1  0
  5  6  2  0
  5  7  2  0
  5  8  1  0
  8  9  1  0
  8 10  1  0
  3 11  1  0
 11 12  2  0
 12 13  1  0
 13 14  2  0
 14 15  1  0
 15 16  2  0
 16 11  1  0
M  END
>  <inchikey>  (218) 
YKUFSMANTRFFSS-UHFFFAOYSA-N

>  <energy_score>  (218) 
-30.486078

>  <subsites>  (218) 
1 - Active Site

>  <alias>  (218) 
C15048-P224

>  <tags>  (218) 
openbind_a71ev2a_c1_scaffolds,BulkDock Fragalysis export,openbind_a71ev2a_c1_knitwork_impure,fragmenstein_placed

>  <distance_score>  (218) 
0.864548

>  <placement_batch>  (218) 
openbind_a71ev2a_c1_knitwork_impure

>  <name>  (218) 
C15048-P224

>  <ref_mols>  (218) 
A3849a,A0719a

>  <smiles>  (218) 
CC[C@H](NS(=O)(=O)N(C)C)c1ccncc1

>  <HIPPO Compound ID>  (218) 
26238

>  <HIPPO Pose ID>  (218) 
381947

>  <ref_pdb>  (218) 
A1778a

$$$$
C15051-P224
     RDKit          3D

 14 14  0  0  0  0  0  0  0  0999 V2000
    8.3086   14.7475   25.1309 C   0  0  0  0  0  0  0  0  0  0  0  0
    8.9036   13.3838   24.7531 C   0  0  2  0  0  0  0  0  0  0  0  0
   10.1861   13.3071   25.3866 O   0  0  0  0  0  0  0  0  0  0  0  0
    8.9162   13.3479   23.2080 C   0  0  0  0  0  0  0  0  0  0  0  0
    7.8881   13.1364   22.5493 O   0  0  0  0  0  0  0  0  0  0  0  0
   10.2418   13.6398   22.5430 C   0  0  0  0  0  0  0  0  0  0  0  0
   11.0827   14.3536   23.3561 F   0  0  0  0  0  0  0  0  0  0  0  0
   10.0860   14.4045   21.4278 F   0  0  0  0  0  0  0  0  0  0  0  0
    8.1105   12.1808   25.2549 C   0  0  0  0  0  0  0  0  0  0  0  0
    7.0073   12.3002   26.1023 C   0  0  0  0  0  0  0  0  0  0  0  0
    6.3153   11.1581   26.4894 C   0  0  0  0  0  0  0  0  0  0  0  0
    6.7336    9.9239   26.0220 C   0  0  0  0  0  0  0  0  0  0  0  0
    7.8474    9.8756   25.2025 C   0  0  0  0  0  0  0  0  0  0  0  0
    8.5462   10.9651   24.8282 N   0  0  0  0  0  0  0  0  0  0  0  0
  2  1  1  6
  2  3  1  0
  2  4  1  0
  4  5  2  0
  4  6  1  0
  6  7  1  0
  6  8  1  0
  2  9  1  0
  9 10  2  0
 10 11  1  0
 11 12  2  0
 12 13  1  0
 13 14  2  0
 14  9  1  0
M  END
>  <inchikey>  (219) 
HKXVWCTZHQLBNW-UHFFFAOYSA-N

>  <energy_score>  (219) 
-16.722681

>  <subsites>  (219) 
1 - Active Site

>  <alias>  (219) 
C15051-P224

>  <tags>  (219) 
openbind_a71ev2a_c1_scaffolds,BulkDock Fragalysis export,openbind_a71ev2a_c1_knitwork_impure,fragmenstein_placed

>  <distance_score>  (219) 
0.845728

>  <placement_batch>  (219) 
openbind_a71ev2a_c1_knitwork_impure

>  <name>  (219) 
C15051-P224

>  <ref_mols>  (219) 
A3849a,A0719a

>  <smiles>  (219) 
C[C@](O)(C(=O)C(F)F)c1ccccn1

>  <HIPPO Compound ID>  (219) 
19998

>  <HIPPO Pose ID>  (219) 
381950

>  <ref_pdb>  (219) 
A1778a

$$$$
C15056-P224
     RDKit          3D

 14 14  0  0  0  0  0  0  0  0999 V2000
   12.6796   15.8345   21.7801 C   0  0  0  0  0  0  0  0  0  0  0  0
   11.5296   15.2324   22.4298 C   0  0  0  0  0  0  0  0  0  0  0  0
   10.4414   14.8866   22.7883 C   0  0  0  0  0  0  0  0  0  0  0  0
    8.9986   14.7909   22.9461 C   0  0  0  0  0  0  0  0  0  0  0  0
    8.4925   13.4639   23.4288 C   0  0  0  0  0  0  0  0  0  0  0  0
    7.7882   12.7752   22.6875 O   0  0  0  0  0  0  0  0  0  0  0  0
    8.8375   13.0534   24.8643 C   0  0  1  0  0  0  0  0  0  0  0  0
    8.7671   14.1907   25.7274 O   0  0  0  0  0  0  0  0  0  0  0  0
    7.9504   11.9530   25.4105 C   0  0  0  0  0  0  0  0  0  0  0  0
    6.8990   12.1977   26.3062 C   0  0  0  0  0  0  0  0  0  0  0  0
    6.0948   11.1556   26.7534 C   0  0  0  0  0  0  0  0  0  0  0  0
    6.3671    9.8837   26.2977 C   0  0  0  0  0  0  0  0  0  0  0  0
    7.3774    9.5939   25.4532 N   0  0  0  0  0  0  0  0  0  0  0  0
    8.1316   10.6304   25.0118 C   0  0  0  0  0  0  0  0  0  0  0  0
  1  2  1  0
  2  3  3  0
  3  4  1  0
  4  5  1  0
  5  6  2  0
  5  7  1  0
  7  8  1  1
  7  9  1  0
  9 10  2  0
 10 11  1  0
 11 12  2  0
 12 13  1  0
 13 14  2  0
 14  9  1  0
M  END
>  <inchikey>  (220) 
WUAFTAWKKQKQSG-UHFFFAOYSA-N

>  <energy_score>  (220) 
-14.580057

>  <subsites>  (220) 
1 - Active Site

>  <alias>  (220) 
C15056-P224

>  <tags>  (220) 
openbind_a71ev2a_c1_scaffolds,BulkDock Fragalysis export,openbind_a71ev2a_c1_knitwork_impure,fragmenstein_placed

>  <distance_score>  (220) 
0.973295

>  <placement_batch>  (220) 
openbind_a71ev2a_c1_knitwork_impure

>  <name>  (220) 
C15056-P224

>  <ref_mols>  (220) 
A3849a,A0719a

>  <smiles>  (220) 
CC#CCC(=O)[C@@H](O)c1cccnc1

>  <HIPPO Compound ID>  (220) 
22516

>  <HIPPO Pose ID>  (220) 
381954

>  <ref_pdb>  (220) 
A1778a

$$$$
C15065-P224
     RDKit          3D

 13 13  0  0  0  0  0  0  0  0999 V2000
   12.0650   15.1345   23.1330 C   0  0  0  0  0  0  0  0  0  0  0  0
   11.2107   14.0573   23.5072 O   0  0  0  0  0  0  0  0  0  0  0  0
    9.9238   14.2104   22.9022 C   0  0  0  0  0  0  0  0  0  0  0  0
    9.0051   13.0571   23.3080 C   0  0  2  0  0  0  0  0  0  0  0  0
    7.8031   13.0806   22.5218 O   0  0  0  0  0  0  0  0  0  0  0  0
    8.5628   13.1418   24.7656 C   0  0  0  0  0  0  0  0  0  0  0  0
    8.6553   14.1686   25.4378 O   0  0  0  0  0  0  0  0  0  0  0  0
    7.8375   11.9892   25.3550 C   0  0  0  0  0  0  0  0  0  0  0  0
    6.8681   12.2462   26.3299 C   0  0  0  0  0  0  0  0  0  0  0  0
    6.1113   11.2018   26.8483 C   0  0  0  0  0  0  0  0  0  0  0  0
    6.3635    9.9249   26.3861 C   0  0  0  0  0  0  0  0  0  0  0  0
    7.3201    9.6316   25.4778 N   0  0  0  0  0  0  0  0  0  0  0  0
    8.0319   10.6716   24.9693 C   0  0  0  0  0  0  0  0  0  0  0  0
  1  2  1  0
  2  3  1  0
  3  4  1  0
  4  5  1  6
  4  6  1  0
  6  7  2  0
  6  8  1  0
  8  9  2  0
  9 10  1  0
 10 11  2  0
 11 12  1  0
 12 13  2  0
 13  8  1  0
M  END
>  <inchikey>  (221) 
XPWBZSZXWGFDON-UHFFFAOYSA-N

>  <energy_score>  (221) 
-23.326594

>  <subsites>  (221) 
1 - Active Site

>  <alias>  (221) 
C15065-P224

>  <tags>  (221) 
openbind_a71ev2a_c1_scaffolds,BulkDock Fragalysis export,openbind_a71ev2a_c1_knitwork_impure,fragmenstein_placed

>  <distance_score>  (221) 
0.74469

>  <placement_batch>  (221) 
openbind_a71ev2a_c1_knitwork_impure

>  <name>  (221) 
C15065-P224

>  <ref_mols>  (221) 
A3849a,A0719a

>  <smiles>  (221) 
COC[C@H](O)C(=O)c1cccnc1

>  <HIPPO Compound ID>  (221) 
12016

>  <HIPPO Pose ID>  (221) 
381962

>  <ref_pdb>  (221) 
A1778a

$$$$
C15066-P224
     RDKit          3D

 15 15  0  0  0  0  0  0  0  0999 V2000
   12.3270   15.8293   21.7570 C   0  0  0  0  0  0  0  0  0  0  0  0
   12.0902   15.2136   23.1265 C   0  0  0  0  0  0  0  0  0  0  0  0
   11.1275   14.0233   23.1326 C   0  0  0  0  0  0  0  0  0  0  0  0
    9.6554   14.4091   22.9385 C   0  0  1  0  0  0  0  0  0  0  0  0
    9.3128   14.7116   21.4781 C   0  0  0  0  0  0  0  0  0  0  0  0
    8.7072   13.3277   23.4829 C   0  0  0  0  0  0  0  0  0  0  0  0
    7.9639   12.6938   22.7314 O   0  0  0  0  0  0  0  0  0  0  0  0
    8.6350   13.1569   25.0042 C   0  0  1  0  0  0  0  0  0  0  0  0
    8.1929   14.4026   25.5475 O   0  0  0  0  0  0  0  0  0  0  0  0
    7.7629   12.0215   25.4973 C   0  0  0  0  0  0  0  0  0  0  0  0
    6.7455   12.2151   26.4405 C   0  0  0  0  0  0  0  0  0  0  0  0
    5.9798   11.1419   26.8807 C   0  0  0  0  0  0  0  0  0  0  0  0
    6.2686    9.8883   26.3832 C   0  0  0  0  0  0  0  0  0  0  0  0
    7.2652    9.6429   25.5091 N   0  0  0  0  0  0  0  0  0  0  0  0
    7.9779   10.7108   25.0749 C   0  0  0  0  0  0  0  0  0  0  0  0
  1  2  1  0
  2  3  1  0
  3  4  1  0
  4  5  1  6
  4  6  1  0
  6  7  2  0
  6  8  1  0
  8  9  1  1
  8 10  1  0
 10 11  2  0
 11 12  1  0
 12 13  2  0
 13 14  1  0
 14 15  2  0
 15 10  1  0
M  END
>  <inchikey>  (222) 
JSVZKTIWBIRABG-UHFFFAOYSA-N

>  <energy_score>  (222) 
-24.441543

>  <subsites>  (222) 
1 - Active Site

>  <alias>  (222) 
C15066-P224

>  <tags>  (222) 
openbind_a71ev2a_c1_scaffolds,BulkDock Fragalysis export,openbind_a71ev2a_c1_knitwork_impure,fragmenstein_placed

>  <distance_score>  (222) 
0.733774

>  <placement_batch>  (222) 
openbind_a71ev2a_c1_knitwork_impure

>  <name>  (222) 
C15066-P224

>  <ref_mols>  (222) 
A3849a,A0719a

>  <smiles>  (222) 
CCC[C@@H](C)C(=O)[C@@H](O)c1cccnc1

>  <HIPPO Compound ID>  (222) 
94714

>  <HIPPO Pose ID>  (222) 
381963

>  <ref_pdb>  (222) 
A1778a

$$$$
C15067-P224
     RDKit          3D

 15 15  0  0  0  0  0  0  0  0999 V2000
   10.9680   16.0510   20.7483 C   0  0  0  0  0  0  0  0  0  0  0  0
   12.0766   15.3486   21.5249 C   0  0  0  0  0  0  0  0  0  0  0  0
   11.8201   15.2201   23.0303 C   0  0  0  0  0  0  0  0  0  0  0  0
   11.0581   14.0667   23.4195 O   0  0  0  0  0  0  0  0  0  0  0  0
    9.7800   14.0540   22.8174 C   0  0  0  0  0  0  0  0  0  0  0  0
    8.7165   13.1806   23.4514 C   0  0  0  0  0  0  0  0  0  0  0  0
    7.8022   12.7360   22.7493 O   0  0  0  0  0  0  0  0  0  0  0  0
    8.6997   13.0673   24.9655 C   0  0  1  0  0  0  0  0  0  0  0  0
    8.2689   14.3413   25.4569 O   0  0  0  0  0  0  0  0  0  0  0  0
    7.8149   11.9609   25.5016 C   0  0  0  0  0  0  0  0  0  0  0  0
    6.8109   12.1949   26.4498 C   0  0  0  0  0  0  0  0  0  0  0  0
    6.0131   11.1500   26.9015 C   0  0  0  0  0  0  0  0  0  0  0  0
    6.2572    9.8844   26.4100 C   0  0  0  0  0  0  0  0  0  0  0  0
    7.2407    9.6006   25.5327 N   0  0  0  0  0  0  0  0  0  0  0  0
    7.9878   10.6407   25.0896 C   0  0  0  0  0  0  0  0  0  0  0  0
  1  2  1  0
  2  3  1  0
  3  4  1  0
  4  5  1  0
  5  6  1  0
  6  7  2  0
  6  8  1  0
  8  9  1  1
  8 10  1  0
 10 11  2  0
 11 12  1  0
 12 13  2  0
 13 14  1  0
 14 15  2  0
 15 10  1  0
M  END
>  <inchikey>  (223) 
JYRQIYXJRADILA-UHFFFAOYSA-N

>  <energy_score>  (223) 
-18.285187

>  <subsites>  (223) 
1 - Active Site

>  <alias>  (223) 
C15067-P224

>  <tags>  (223) 
openbind_a71ev2a_c1_scaffolds,BulkDock Fragalysis export,openbind_a71ev2a_c1_knitwork_impure,fragmenstein_placed

>  <distance_score>  (223) 
0.80372

>  <placement_batch>  (223) 
openbind_a71ev2a_c1_knitwork_impure

>  <name>  (223) 
C15067-P224

>  <ref_mols>  (223) 
A3849a,A0719a

>  <smiles>  (223) 
CCCOCC(=O)[C@@H](O)c1cccnc1

>  <HIPPO Compound ID>  (223) 
84541

>  <HIPPO Pose ID>  (223) 
381964

>  <ref_pdb>  (223) 
A1778a

$$$$
C8137-P224
     RDKit          3D

 18 18  0  0  0  0  0  0  0  0999 V2000
   11.9039   14.0797   22.5675 C   0  0  0  0  0  0  0  0  0  0  0  0
   11.7393   15.4960   23.0796 C   0  0  0  0  0  0  0  0  0  0  0  0
   10.4932   15.6489   23.9414 C   0  0  0  0  0  0  0  0  0  0  0  0
    9.2062   16.0604   23.1835 C   0  0  0  0  0  0  0  0  0  0  0  0
    8.6513   14.9141   22.4561 N   0  0  0  0  0  0  0  0  0  0  0  0
    9.1199   14.9307   21.0472 C   0  0  0  0  0  0  0  0  0  0  0  0
    7.0066   14.5914   22.5738 S   0  0  0  0  0  0  0  0  0  0  0  0
    6.7689   13.3697   21.8383 O   0  0  0  0  0  0  0  0  0  0  0  0
    6.2315   15.7656   22.2674 O   0  0  0  0  0  0  0  0  0  0  0  0
    6.7104   14.2021   24.1608 N   0  0  0  0  0  0  0  0  0  0  0  0
    7.7147   13.9094   25.1861 C   0  0  1  0  0  0  0  0  0  0  0  0
    7.0827   14.2813   26.5360 C   0  0  0  0  0  0  0  0  0  0  0  0
    8.2758   12.4674   25.1816 C   0  0  0  0  0  0  0  0  0  0  0  0
    7.2377   11.4380   25.6119 C   0  0  0  0  0  0  0  0  0  0  0  0
    7.7066   10.0116   25.4379 C   0  0  0  0  0  0  0  0  0  0  0  0
    8.2884    9.7203   24.1520 N   0  0  0  0  0  0  0  0  0  0  0  0
    9.3692   10.5977   23.7647 C   0  0  0  0  0  0  0  0  0  0  0  0
    9.0123   12.0679   23.8997 C   0  0  0  0  0  0  0  0  0  0  0  0
  1  2  1  0
  2  3  1  0
  3  4  1  0
  4  5  1  0
  5  6  1  0
  5  7  1  0
  7  8  2  0
  7  9  2  0
  7 10  1  0
 10 11  1  0
 11 12  1  1
 11 13  1  0
 13 14  1  0
 14 15  1  0
 15 16  1  0
 16 17  1  0
 17 18  1  0
 18 13  1  0
M  END
>  <inchikey>  (224) 
CBVFQNPUAAYSLD-UHFFFAOYSA-N

>  <energy_score>  (224) 
-57.868536

>  <subsites>  (224) 
1 - Active Site

>  <alias>  (224) 
C8137-P224

>  <tags>  (224) 
openbind_a71ev2a_c1_scaffolds,BulkDock Fragalysis export,openbind_a71ev2a_c1_knitwork_impure,fragmenstein_placed

>  <distance_score>  (224) 
0.982909

>  <placement_batch>  (224) 
openbind_a71ev2a_c1_knitwork_impure

>  <name>  (224) 
C8137-P224

>  <ref_mols>  (224) 
A3849a,A0719a

>  <smiles>  (224) 
CCCCN(C)S(=O)(=O)N[C@@H](C)C1CCNCC1

>  <HIPPO Compound ID>  (224) 
82401

>  <HIPPO Pose ID>  (224) 
381974

>  <ref_pdb>  (224) 
A1778a

$$$$
C8141-P224
     RDKit          3D

 14 14  0  0  0  0  0  0  0  0999 V2000
   12.0863   15.4926   22.1913 C   0  0  0  0  0  0  0  0  0  0  0  0
   11.0351   14.8437   23.0259 C   0  0  0  0  0  0  0  0  0  0  0  0
   10.0120   14.1395   22.5190 C   0  0  0  0  0  0  0  0  0  0  0  0
    8.8956   13.5114   23.2962 C   0  0  0  0  0  0  0  0  0  0  0  0
    7.9068   13.1401   22.6585 O   0  0  0  0  0  0  0  0  0  0  0  0
    9.0114   13.3532   24.8410 C   0  0  2  0  0  0  0  0  0  0  0  0
    8.5914   14.6863   25.4721 C   0  0  0  0  0  0  0  0  0  0  0  0
   10.3731   13.1019   25.2384 O   0  0  0  0  0  0  0  0  0  0  0  0
    8.2065   12.1724   25.4395 C   0  0  0  0  0  0  0  0  0  0  0  0
    6.7460   12.4437   25.8026 C   0  0  0  0  0  0  0  0  0  0  0  0
    6.0787   11.2252   26.4491 C   0  0  0  0  0  0  0  0  0  0  0  0
    6.2777    9.9752   25.7226 N   0  0  0  0  0  0  0  0  0  0  0  0
    7.6752    9.7383   25.4095 C   0  0  0  0  0  0  0  0  0  0  0  0
    8.3604   10.8667   24.6683 C   0  0  0  0  0  0  0  0  0  0  0  0
  1  2  1  0
  2  3  2  3
  3  4  1  0
  4  5  2  0
  4  6  1  0
  6  7  1  1
  6  8  1  0
  6  9  1  0
  9 10  1  0
 10 11  1  0
 11 12  1  0
 12 13  1  0
 13 14  1  0
 14  9  1  0
M  END
>  <inchikey>  (225) 
XZMDXLGITMJJAR-UHFFFAOYSA-N

>  <energy_score>  (225) 
-24.373575

>  <subsites>  (225) 
1 - Active Site

>  <alias>  (225) 
C8141-P224

>  <tags>  (225) 
openbind_a71ev2a_c1_scaffolds,BulkDock Fragalysis export,openbind_a71ev2a_c1_knitwork_impure,fragmenstein_placed

>  <distance_score>  (225) 
0.899193

>  <placement_batch>  (225) 
openbind_a71ev2a_c1_knitwork_impure

>  <name>  (225) 
C8141-P224

>  <ref_mols>  (225) 
A3849a,A0719a

>  <smiles>  (225) 
CC=CC(=O)[C@](C)(O)C1CCNCC1

>  <HIPPO Compound ID>  (225) 
7393

>  <HIPPO Pose ID>  (225) 
381977

>  <ref_pdb>  (225) 
A1778a

$$$$
C8155-P224
     RDKit          3D

 16 16  0  0  0  0  0  0  0  0999 V2000
   11.4121   15.0415   18.7784 C   0  0  0  0  0  0  0  0  0  0  0  0
   10.5539   15.8458   19.6924 C   0  0  0  0  0  0  0  0  0  0  0  0
   10.8116   16.1486   20.9707 C   0  0  0  0  0  0  0  0  0  0  0  0
   12.0140   15.7764   21.6778 C   0  0  0  0  0  0  0  0  0  0  0  0
   12.0170   15.2482   22.9113 C   0  0  0  0  0  0  0  0  0  0  0  0
   10.8005   14.9122   23.7044 C   0  0  0  0  0  0  0  0  0  0  0  0
   10.1070   13.8304   23.0141 N   0  0  0  0  0  0  0  0  0  0  0  0
    8.5656   13.4978   23.5302 S   0  0  0  0  0  0  0  0  0  0  0  0
    8.3542   14.1658   24.7908 O   0  0  0  0  0  0  0  0  0  0  0  0
    7.6947   13.6219   22.3882 O   0  0  0  0  0  0  0  0  0  0  0  0
    8.6629   11.8486   23.8370 N   0  0  0  0  0  0  0  0  0  0  0  0
    8.1397   11.4634   25.1520 C   0  0  0  0  0  0  0  0  0  0  0  0
    7.8436    9.9845   25.2013 C   0  0  0  0  0  0  0  0  0  0  0  0
    8.6397    9.1247   24.2348 C   0  0  0  0  0  0  0  0  0  0  0  0
    9.9039    9.6996   23.6669 C   0  0  0  0  0  0  0  0  0  0  0  0
    9.9315   11.2011   23.4936 C   0  0  0  0  0  0  0  0  0  0  0  0
  1  2  1  0
  2  3  2  3
  3  4  1  0
  4  5  2  3
  5  6  1  0
  6  7  1  0
  7  8  1  0
  8  9  2  0
  8 10  2  0
  8 11  1  0
 11 12  1  0
 12 13  1  0
 13 14  1  0
 14 15  1  0
 15 16  1  0
 16 11  1  0
M  END
>  <inchikey>  (226) 
NKBIUPWOQPIFKU-UHFFFAOYSA-N

>  <energy_score>  (226) 
-23.017703

>  <subsites>  (226) 
1 - Active Site

>  <alias>  (226) 
C8155-P224

>  <tags>  (226) 
openbind_a71ev2a_c1_scaffolds,BulkDock Fragalysis export,openbind_a71ev2a_c1_knitwork_impure,fragmenstein_placed

>  <distance_score>  (226) 
0.979028

>  <placement_batch>  (226) 
openbind_a71ev2a_c1_knitwork_impure

>  <name>  (226) 
C8155-P224

>  <ref_mols>  (226) 
A3849a,A0719a

>  <smiles>  (226) 
CC=CC=CCNS(=O)(=O)N1CCCCC1

>  <HIPPO Compound ID>  (226) 
21167

>  <HIPPO Pose ID>  (226) 
381986

>  <ref_pdb>  (226) 
A1778a

$$$$
C8169-P224
     RDKit          3D

 14 14  0  0  0  0  0  0  0  0999 V2000
    8.8197   14.4211   24.8447 O   0  0  0  0  0  0  0  0  0  0  0  0
    8.8496   13.5278   23.7171 S   0  0  0  0  0  0  0  0  0  0  0  0
    7.7606   13.4055   22.7734 O   0  0  0  0  0  0  0  0  0  0  0  0
   10.1841   13.8197   22.8037 N   0  0  0  0  0  0  0  0  0  0  0  0
   11.4820   14.0680   23.4019 C   0  0  0  0  0  0  0  0  0  0  0  0
   11.9531   15.4834   23.1108 C   0  0  0  0  0  0  0  0  0  0  0  0
   12.1729   15.7979   21.6325 C   0  0  0  0  0  0  0  0  0  0  0  0
   10.6407   15.9722   20.7371 Cl  0  0  0  0  0  0  0  0  0  0  0  0
    9.1611   11.9652   24.3410 N   0  0  0  0  0  0  0  0  0  0  0  0
    9.6731   11.0650   23.2929 C   0  0  0  0  0  0  0  0  0  0  0  0
    9.8904    9.6494   23.7329 C   0  0  0  0  0  0  0  0  0  0  0  0
    8.6286    9.0945   24.3142 C   0  0  0  0  0  0  0  0  0  0  0  0
    7.9297    9.9997   25.3108 C   0  0  0  0  0  0  0  0  0  0  0  0
    7.8964   11.4676   24.9607 C   0  0  0  0  0  0  0  0  0  0  0  0
  1  2  2  0
  2  3  2  0
  2  4  1  0
  4  5  1  0
  5  6  1  0
  6  7  1  0
  7  8  1  0
  2  9  1  0
  9 10  1  0
 10 11  1  0
 11 12  1  0
 12 13  1  0
 13 14  1  0
 14  9  1  0
M  END
>  <inchikey>  (227) 
AJZMAQJSZWQBTD-UHFFFAOYSA-N

>  <energy_score>  (227) 
-43.71981

>  <subsites>  (227) 
1 - Active Site

>  <alias>  (227) 
C8169-P224

>  <tags>  (227) 
openbind_a71ev2a_c1_scaffolds,BulkDock Fragalysis export,openbind_a71ev2a_c1_knitwork_impure,fragmenstein_placed

>  <distance_score>  (227) 
0.950727

>  <placement_batch>  (227) 
openbind_a71ev2a_c1_knitwork_impure

>  <name>  (227) 
C8169-P224

>  <ref_mols>  (227) 
A3849a,A0719a

>  <smiles>  (227) 
O=S(=O)(NCCCCl)N1CCCCC1

>  <HIPPO Compound ID>  (227) 
91081

>  <HIPPO Pose ID>  (227) 
381997

>  <ref_pdb>  (227) 
A1778a

$$$$
C8176-P224
     RDKit          3D

 15 15  0  0  0  0  0  0  0  0999 V2000
    8.1221   14.8649   25.2455 C   0  0  0  0  0  0  0  0  0  0  0  0
    8.6342   13.4925   24.7909 C   0  0  2  0  0  0  0  0  0  0  0  0
    9.8712   13.2556   25.4589 O   0  0  0  0  0  0  0  0  0  0  0  0
    8.7667   13.5471   23.2406 C   0  0  0  0  0  0  0  0  0  0  0  0
    7.9049   13.0376   22.5108 O   0  0  0  0  0  0  0  0  0  0  0  0
    9.9348   14.3384   22.6725 C   0  0  0  0  0  0  0  0  0  0  0  0
   10.8958   14.6194   23.6011 F   0  0  0  0  0  0  0  0  0  0  0  0
   10.5615   13.7003   21.6606 F   0  0  0  0  0  0  0  0  0  0  0  0
    9.2084   15.9980   21.9591 Br  0  0  0  0  0  0  0  0  0  0  0  0
    7.6275   12.3534   25.1865 C   0  0  2  0  0  0  0  0  0  0  0  0
    7.0197   12.4890   26.5891 C   0  0  0  0  0  0  0  0  0  0  0  0
    6.1262   11.3197   26.9958 C   0  0  0  0  0  0  0  0  0  0  0  0
    6.3599   10.0390   26.2132 C   0  0  0  0  0  0  0  0  0  0  0  0
    7.7341    9.8798   25.7946 N   0  0  0  0  0  0  0  0  0  0  0  0
    8.2308   10.9555   24.9442 C   0  0  0  0  0  0  0  0  0  0  0  0
  2  1  1  1
  2  3  1  0
  2  4  1  0
  4  5  2  0
  4  6  1  0
  6  7  1  0
  6  8  1  0
  6  9  1  0
  2 10  1  0
 10 11  1  1
 11 12  1  0
 12 13  1  0
 13 14  1  0
 14 15  1  0
 15 10  1  0
M  END
>  <inchikey>  (228) 
GOIIBLCLDRWXDI-UHFFFAOYSA-N

>  <energy_score>  (228) 
-24.181138

>  <subsites>  (228) 
1 - Active Site

>  <alias>  (228) 
C8176-P224

>  <tags>  (228) 
openbind_a71ev2a_c1_scaffolds,BulkDock Fragalysis export,openbind_a71ev2a_c1_knitwork_impure,fragmenstein_placed

>  <distance_score>  (228) 
0.951041

>  <placement_batch>  (228) 
openbind_a71ev2a_c1_knitwork_impure

>  <name>  (228) 
C8176-P224

>  <ref_mols>  (228) 
A3849a,A0719a

>  <smiles>  (228) 
C[C@](O)(C(=O)C(F)(F)Br)[C@@H]1CCCNC1

>  <HIPPO Compound ID>  (228) 
12411

>  <HIPPO Pose ID>  (228) 
382003

>  <ref_pdb>  (228) 
A1778a

$$$$
C1390-P218
     RDKit          3D

 17 17  0  0  0  0  0  0  0  0999 V2000
   12.5295   15.7933   21.2697 C   0  0  0  0  0  0  0  0  0  0  0  0
   12.0808   15.1130   22.5583 C   0  0  0  0  0  0  0  0  0  0  0  0
   11.0202   15.9424   23.2748 C   0  0  0  0  0  0  0  0  0  0  0  0
    9.5600   15.5563   22.9831 C   0  0  2  0  0  0  0  0  0  0  0  0
    9.1519   14.3261   23.6641 N   0  0  0  0  0  0  0  0  0  0  0  0
    9.6121   13.7253   25.0041 C   0  0  0  0  0  0  0  0  0  0  0  0
   10.4444   14.0735   25.7422 O   0  0  0  0  0  0  0  0  0  0  0  0
    8.7412   12.5209   25.3245 C   0  0  0  0  0  0  0  0  0  0  0  0
    7.3060   12.8722   25.6962 C   0  0  0  0  0  0  0  0  0  0  0  0
    6.6234   11.6518   26.3141 C   0  0  0  0  0  0  0  0  0  0  0  0
    6.7497   10.4462   25.5031 N   0  0  0  0  0  0  0  0  0  0  0  0
    8.0838   10.1686   24.9861 C   0  0  0  0  0  0  0  0  0  0  0  0
    8.7709   11.3715   24.3399 C   0  0  0  0  0  0  0  0  0  0  0  0
    9.2112   15.5513   21.4889 C   0  0  0  0  0  0  0  0  0  0  0  0
    9.9787   14.7087   20.7705 F   0  0  0  0  0  0  0  0  0  0  0  0
    9.3271   16.7830   20.9507 F   0  0  0  0  0  0  0  0  0  0  0  0
    7.9257   15.1439   21.3274 F   0  0  0  0  0  0  0  0  0  0  0  0
  1  2  1  0
  2  3  1  0
  4  3  1  6
  4  5  1  0
  5  6  1  0
  6  7  2  0
  6  8  1  0
  8  9  1  0
  9 10  1  0
 10 11  1  0
 11 12  1  0
 12 13  1  0
  4 14  1  0
 14 15  1  0
 14 16  1  0
 14 17  1  0
 13  8  1  0
M  END
>  <inchikey>  (229) 
BYXOCXSSHQOHSD-UHFFFAOYSA-N

>  <energy_score>  (229) 
-6.424578

>  <subsites>  (229) 
1 - Active Site

>  <alias>  (229) 
C1390-P218

>  <tags>  (229) 
openbind_a71ev2a_c1_scaffolds,BulkDock Fragalysis export,openbind_a71ev2a_c1_knitwork_impure,fragmenstein_placed

>  <distance_score>  (229) 
0.96221

>  <placement_batch>  (229) 
openbind_a71ev2a_c1_knitwork_impure

>  <name>  (229) 
C1390-P218

>  <ref_mols>  (229) 
A3557b,A1778a

>  <smiles>  (229) 
CCC[C@H](NC(=O)C1CCNCC1)C(F)(F)F

>  <HIPPO Compound ID>  (229) 
1419

>  <HIPPO Pose ID>  (229) 
382459

>  <ref_pdb>  (229) 
A1778a

$$$$
C4666-P245
     RDKit          3D

 10 10  0  0  0  0  0  0  0  0999 V2000
   10.2004   12.7130   24.3620 C   0  0  0  0  0  0  0  0  0  0  0  0
    9.2934   13.4654   23.3977 C   0  0  1  0  0  0  0  0  0  0  0  0
    7.8555   13.0719   23.7845 C   0  0  0  0  0  0  0  0  0  0  0  0
    7.5656   12.1287   24.5273 O   0  0  0  0  0  0  0  0  0  0  0  0
    9.4201   14.9443   23.4259 N   0  0  0  0  0  0  0  0  0  0  0  0
   10.7559   15.4567   23.8005 C   0  0  0  0  0  0  0  0  0  0  0  0
   11.8390   15.2755   22.7173 C   0  0  0  0  0  0  0  0  0  0  0  0
   11.4815   15.9640   21.4769 N   0  0  0  0  0  0  0  0  0  0  0  0
   10.1841   15.4546   21.0119 C   0  0  0  0  0  0  0  0  0  0  0  0
    9.0745   15.5365   22.0957 C   0  0  0  0  0  0  0  0  0  0  0  0
  2  1  1  1
  2  3  1  0
  3  4  2  0
  2  5  1  0
  5  6  1  0
  6  7  1  0
  7  8  1  0
  8  9  1  0
  9 10  1  0
 10  5  1  0
M  END
>  <inchikey>  (230) 
ZRXPCXKVGFOFRK-UHFFFAOYSA-N

>  <energy_score>  (230) 
-22.493821

>  <subsites>  (230) 
1 - Active Site

>  <alias>  (230) 
C4666-P245

>  <tags>  (230) 
openbind_a71ev2a_c1_scaffolds,BulkDock Fragalysis export,openbind_a71ev2a_c1_knitwork_impure,fragmenstein_placed

>  <distance_score>  (230) 
0.988246

>  <placement_batch>  (230) 
openbind_a71ev2a_c1_knitwork_impure

>  <name>  (230) 
C4666-P245

>  <ref_mols>  (230) 
A1775a,A3942a

>  <smiles>  (230) 
C[C@@H](C=O)N1CCNCC1

>  <HIPPO Compound ID>  (230) 
7147

>  <HIPPO Pose ID>  (230) 
382702

>  <ref_pdb>  (230) 
A1778a

$$$$
C1405-P195
     RDKit          3D

 18 18  0  0  0  0  0  0  0  0999 V2000
    7.8436   13.9968   22.0156 N   0  0  0  0  0  0  0  0  0  0  0  0
    8.0059   13.9336   23.1605 C   0  0  0  0  0  0  0  0  0  0  0  0
    8.0604   13.7881   24.6170 C   0  0  0  0  0  0  0  0  0  0  0  0
    7.0547   12.7109   25.0479 C   0  0  2  0  0  0  0  0  0  0  0  0
    6.6367   12.9133   26.4495 N   0  0  0  0  0  0  0  0  0  0  0  0
    5.7094   12.0652   27.3541 C   0  0  0  0  0  0  0  0  0  0  0  0
    5.1961   11.0389   27.1568 O   0  0  0  0  0  0  0  0  0  0  0  0
    5.6003   12.8296   28.6754 C   0  0  0  0  0  0  0  0  0  0  0  0
    4.8913   12.0247   29.7777 C   0  0  0  0  0  0  0  0  0  0  0  0
    4.5227   12.9377   30.9577 C   0  0  0  0  0  0  0  0  0  0  0  0
    3.9073   12.1399   32.1075 C   0  0  0  0  0  0  0  0  0  0  0  0
    4.7915   11.0635   32.5552 N   0  0  0  0  0  0  0  0  0  0  0  0
    5.0946   10.1427   31.4596 C   0  0  0  0  0  0  0  0  0  0  0  0
    5.7616   10.8616   30.2875 C   0  0  0  0  0  0  0  0  0  0  0  0
    7.6879   11.3252   24.8034 C   0  0  0  0  0  0  0  0  0  0  0  0
    6.8320   10.2986   24.9298 F   0  0  0  0  0  0  0  0  0  0  0  0
    8.2829   11.2322   23.5973 F   0  0  0  0  0  0  0  0  0  0  0  0
    8.6563   11.1524   25.7234 F   0  0  0  0  0  0  0  0  0  0  0  0
  1  2  3  0
  2  3  1  0
  4  3  1  1
  4  5  1  0
  5  6  1  0
  6  7  2  0
  6  8  1  0
  8  9  1  0
  9 10  1  0
 10 11  1  0
 11 12  1  0
 12 13  1  0
 13 14  1  0
  4 15  1  0
 15 16  1  0
 15 17  1  0
 15 18  1  0
 14  9  1  0
M  END
>  <inchikey>  (231) 
JUJYNCPRVMVRCV-UHFFFAOYSA-N

>  <energy_score>  (231) 
-17.555762

>  <subsites>  (231) 
6 - A0486/A/147/1,1 - Active Site

>  <alias>  (231) 
C1405-P195

>  <tags>  (231) 
openbind_a71ev2a_c1_scaffolds,BulkDock Fragalysis export,openbind_a71ev2a_c1_knitwork_impure,fragmenstein_placed

>  <distance_score>  (231) 
0.953493

>  <placement_batch>  (231) 
openbind_a71ev2a_c1_knitwork_impure

>  <name>  (231) 
C1405-P195

>  <ref_mols>  (231) 
A0486a,A3612a

>  <smiles>  (231) 
N#CC[C@H](NC(=O)CC1CCNCC1)C(F)(F)F

>  <HIPPO Compound ID>  (231) 
1877

>  <HIPPO Pose ID>  (231) 
383381

>  <ref_pdb>  (231) 
A1778a

$$$$
C2410-P338
     RDKit          3D

 14 14  0  0  0  0  0  0  0  0999 V2000
    9.9684   15.6752   23.3860 C   0  0  0  0  0  0  0  0  0  0  0  0
    9.3397   14.4450   22.7679 C   0  0  0  0  0  0  0  0  0  0  0  0
    8.9856   14.7418   21.4891 F   0  0  0  0  0  0  0  0  0  0  0  0
   10.2780   13.4670   22.6964 F   0  0  0  0  0  0  0  0  0  0  0  0
    8.1132   13.9053   23.4968 C   0  0  0  0  0  0  0  0  0  0  0  0
    8.3970   13.4721   24.9407 C   0  0  0  0  0  0  0  0  0  0  0  0
    7.2199   13.5676   25.9209 C   0  0  2  0  0  0  0  0  0  0  0  0
    6.1566   12.8794   25.4257 F   0  0  0  0  0  0  0  0  0  0  0  0
    6.7664   14.9851   26.3718 C   0  0  1  0  0  0  0  0  0  0  0  0
    7.8458   15.6542   27.2400 C   0  0  0  0  0  0  0  0  0  0  0  0
    7.3897   17.0219   27.7395 C   0  0  0  0  0  0  0  0  0  0  0  0
    6.9513   17.8924   26.5696 C   0  0  0  0  0  0  0  0  0  0  0  0
    5.9176   17.1811   25.7046 C   0  0  0  0  0  0  0  0  0  0  0  0
    6.3981   15.8722   25.2583 N   0  0  0  0  0  0  0  0  0  0  0  0
  1  2  1  0
  2  3  1  0
  2  4  1  0
  2  5  1  0
  5  6  1  0
  6  7  1  0
  7  8  1  6
  7  9  1  0
  9 10  1  6
 10 11  1  0
 11 12  1  0
 12 13  1  0
 13 14  1  0
 14  9  1  0
M  END
>  <inchikey>  (232) 
FPIYKYLQFSMPTN-UHFFFAOYSA-N

>  <energy_score>  (232) 
-32.078646

>  <subsites>  (232) 
1 - Active Site

>  <alias>  (232) 
C2410-P338

>  <tags>  (232) 
openbind_a71ev2a_c1_scaffolds,BulkDock Fragalysis export,openbind_a71ev2a_c1_knitwork_impure,fragmenstein_placed

>  <distance_score>  (232) 
0.982469

>  <placement_batch>  (232) 
openbind_a71ev2a_c1_knitwork_impure

>  <name>  (232) 
C2410-P338

>  <ref_mols>  (232) 
A4237a,A1775a

>  <smiles>  (232) 
CC(F)(F)CC[C@H](F)[C@H]1CCCCN1

>  <HIPPO Compound ID>  (232) 
10215

>  <HIPPO Pose ID>  (232) 
383475

>  <ref_pdb>  (232) 
A1778a

$$$$
C7479-P2
     RDKit          3D

 23 24  0  0  0  0  0  0  0  0999 V2000
    3.3883   12.2406   18.2644 C   0  0  0  0  0  0  0  0  0  0  0  0
    3.3268   12.5789   19.7532 C   0  0  0  0  0  0  0  0  0  0  0  0
    2.3072   11.6878   20.4613 C   0  0  0  0  0  0  0  0  0  0  0  0
    3.0170   14.0084   19.9813 C   0  0  0  0  0  0  0  0  0  0  0  0
    2.1119   14.5708   19.1274 O   0  0  0  0  0  0  0  0  0  0  0  0
    2.0330   15.8581   19.5268 C   0  0  0  0  0  0  0  0  0  0  0  0
    2.7808   16.1704   20.5643 N   0  0  0  0  0  0  0  0  0  0  0  0
    3.3999   14.9740   20.8971 C   0  0  0  0  0  0  0  0  0  0  0  0
    4.2980   14.8619   22.0934 C   0  0  0  0  0  0  0  0  0  0  0  0
    5.5631   15.5067   21.7798 N   0  0  0  0  0  0  0  0  0  0  0  0
    6.9832   14.7499   22.2179 S   0  0  0  0  0  0  0  0  0  0  0  0
    6.7529   13.3692   21.8113 O   0  0  0  0  0  0  0  0  0  0  0  0
    7.9552   15.4581   21.4113 O   0  0  0  0  0  0  0  0  0  0  0  0
    6.9327   15.0168   23.7278 N   0  0  0  0  0  0  0  0  0  0  0  0
    8.2806   14.7328   24.4154 S   0  0  2  0  0  0  0  0  0  0  0  0
    8.1106   15.3439   26.0806 C   0  0  0  0  0  0  0  0  0  0  0  0
    9.5538   15.2451   23.9554 O   0  0  0  0  0  0  0  0  0  0  0  0
    8.5154   12.9635   24.7110 C   0  0  0  0  0  0  0  0  0  0  0  0
    9.2971   12.3099   23.5751 C   0  0  0  0  0  0  0  0  0  0  0  0
    9.3526   10.7884   23.5933 C   0  0  0  0  0  0  0  0  0  0  0  0
    8.2318   10.0392   24.2839 C   0  0  0  0  0  0  0  0  0  0  0  0
    7.4102   10.7898   25.3132 C   0  0  0  0  0  0  0  0  0  0  0  0
    7.2037   12.2542   24.9944 C   0  0  0  0  0  0  0  0  0  0  0  0
  1  2  1  0
  2  3  1  0
  2  4  1  0
  4  5  1  0
  5  6  1  0
  6  7  2  0
  7  8  1  0
  8  9  1  0
  9 10  1  0
 10 11  1  0
 11 12  2  0
 11 13  2  0
 11 14  1  0
 14 15  2  0
 15 16  1  1
 15 17  2  0
 15 18  1  0
 18 19  1  0
 19 20  1  0
 20 21  1  0
 21 22  1  0
 22 23  1  0
  8  4  2  0
 23 18  1  0
M  END
>  <inchikey>  (233) 
AJQNPQKWWJKQFB-UHFFFAOYSA-N

>  <energy_score>  (233) 
-237.08685

>  <subsites>  (233) 
1 - Active Site

>  <alias>  (233) 
C7479-P2

>  <tags>  (233) 
openbind_a71ev2a_c1_scaffolds,BulkDock Fragalysis export,openbind_a71ev2a_c1_knitwork_impure,fragmenstein_placed

>  <distance_score>  (233) 
0.868846

>  <placement_batch>  (233) 
openbind_a71ev2a_c1_knitwork_impure

>  <name>  (233) 
C7479-P2

>  <ref_mols>  (233) 
A3623a,A4298a

>  <smiles>  (233) 
CC(C)c1ocnc1CNS(=O)(=O)N=[S@](C)(=O)C1CCCCC1

>  <HIPPO Compound ID>  (233) 
4291

>  <HIPPO Pose ID>  (233) 
383617

>  <ref_pdb>  (233) 
A1778a

$$$$
C4745-P465
     RDKit          3D

 11 12  0  0  0  0  0  0  0  0999 V2000
   11.3128   15.1966   22.3059 C   0  0  0  0  0  0  0  0  0  0  0  0
   10.9359   14.4939   23.4258 C   0  0  0  0  0  0  0  0  0  0  0  0
    9.5978   14.0914   23.1759 C   0  0  0  0  0  0  0  0  0  0  0  0
    8.6867   13.1993   23.9757 C   0  0  2  0  0  0  0  0  0  0  0  0
    8.4233   13.7038   25.4081 C   0  0  0  0  0  0  0  0  0  0  0  0
    7.3892   12.9903   26.1980 N   0  0  0  0  0  0  0  0  0  0  0  0
    7.0874   11.6462   25.6857 C   0  0  0  0  0  0  0  0  0  0  0  0
    8.3216   10.8081   25.3571 C   0  0  0  0  0  0  0  0  0  0  0  0
    9.3419   11.4778   24.0153 S   0  0  0  0  0  0  0  0  0  0  0  0
    9.1538   14.5914   22.0134 N   0  0  0  0  0  0  0  0  0  0  0  0
   10.2353   15.1771   21.4688 N   0  0  0  0  0  0  0  0  0  0  0  0
  1  2  2  0
  2  3  1  0
  4  3  1  1
  4  5  1  0
  5  6  1  0
  6  7  1  0
  7  8  1  0
  8  9  1  0
  3 10  2  0
 10 11  1  0
 11  1  1  0
  9  4  1  0
M  END
>  <inchikey>  (234) 
MQHOJDGABPALRL-UHFFFAOYSA-N

>  <energy_score>  (234) 
-27.661957

>  <subsites>  (234) 
1 - Active Site

>  <alias>  (234) 
C4745-P465

>  <tags>  (234) 
openbind_a71ev2a_c1_scaffolds,BulkDock Fragalysis export,openbind_a71ev2a_c1_knitwork_impure,fragmenstein_placed

>  <distance_score>  (234) 
0.992021

>  <placement_batch>  (234) 
openbind_a71ev2a_c1_knitwork_impure

>  <name>  (234) 
C4745-P465

>  <ref_mols>  (234) 
A2304a,A4786a

>  <smiles>  (234) 
c1cc([C@@H]2CNCCS2)n[nH]1

>  <HIPPO Compound ID>  (234) 
9987

>  <HIPPO Pose ID>  (234) 
384077

>  <ref_pdb>  (234) 
A1778a

$$$$
C2414-P217
     RDKit          3D

 16 16  0  0  0  0  0  0  0  0999 V2000
    5.4828   10.2718   26.6930 C   0  0  0  0  0  0  0  0  0  0  0  0
    6.0641   11.2640   26.3499 C   0  0  0  0  0  0  0  0  0  0  0  0
    6.8204   12.4295   25.8764 C   0  0  0  0  0  0  0  0  0  0  0  0
    7.8536   11.9839   24.8557 C   0  0  0  0  0  0  0  0  0  0  0  0
    8.9131   13.0208   24.5380 C   0  0  0  0  0  0  0  0  0  0  0  0
   10.0398   12.8062   25.0040 O   0  0  0  0  0  0  0  0  0  0  0  0
    8.5348   14.3210   23.6994 C   0  0  1  0  0  0  0  0  0  0  0  0
    7.3295   13.9886   22.7953 C   0  0  0  0  0  0  0  0  0  0  0  0
    8.1383   15.4222   24.7338 C   0  0  0  0  0  0  0  0  0  0  0  0
    7.3179   16.5911   24.2029 C   0  0  0  0  0  0  0  0  0  0  0  0
    9.7189   14.6547   22.8466 N   0  0  0  0  0  0  0  0  0  0  0  0
   10.8616   15.2420   23.5634 C   0  0  0  0  0  0  0  0  0  0  0  0
   12.1230   15.0959   22.7244 C   0  0  0  0  0  0  0  0  0  0  0  0
   11.9813   15.8556   21.4176 C   0  0  0  0  0  0  0  0  0  0  0  0
   10.7335   15.3927   20.6848 C   0  0  0  0  0  0  0  0  0  0  0  0
    9.4932   15.3911   21.5879 C   0  0  0  0  0  0  0  0  0  0  0  0
  1  2  3  0
  2  3  1  0
  3  4  1  0
  4  5  1  0
  5  6  2  0
  5  7  1  0
  7  8  1  6
  7  9  1  0
  9 10  1  0
  7 11  1  0
 11 12  1  0
 12 13  1  0
 13 14  1  0
 14 15  1  0
 15 16  1  0
 16 11  1  0
M  END
>  <inchikey>  (235) 
YDZVKAFTNJTLSL-UHFFFAOYSA-N

>  <energy_score>  (235) 
-31.834174

>  <subsites>  (235) 
1 - Active Site

>  <alias>  (235) 
C2414-P217

>  <tags>  (235) 
openbind_a71ev2a_c1_scaffolds,BulkDock Fragalysis export,openbind_a71ev2a_c1_knitwork_impure,fragmenstein_placed

>  <distance_score>  (235) 
0.856986

>  <placement_batch>  (235) 
openbind_a71ev2a_c1_knitwork_impure

>  <name>  (235) 
C2414-P217

>  <ref_mols>  (235) 
A3557a,A1779a

>  <smiles>  (235) 
C#CCCC(=O)[C@@](C)(CC)N1CCCCC1

>  <HIPPO Compound ID>  (235) 
6051

>  <HIPPO Pose ID>  (235) 
385246

>  <ref_pdb>  (235) 
A3564a

$$$$
C15025-P229
     RDKit          3D

 12 12  0  0  0  0  0  0  0  0999 V2000
   11.2527   13.9257   22.7452 C   0  0  0  0  0  0  0  0  0  0  0  0
    9.7810   14.1935   22.5044 C   0  0  0  0  0  0  0  0  0  0  0  0
    8.8563   13.2641   23.2254 N   0  0  0  0  0  0  0  0  0  0  0  0
    8.9961   13.2476   24.9083 S   0  0  0  0  0  0  0  0  0  0  0  0
    8.4268   14.4972   25.3632 O   0  0  0  0  0  0  0  0  0  0  0  0
   10.3283   12.8425   25.2876 O   0  0  0  0  0  0  0  0  0  0  0  0
    7.9125   11.9584   25.3997 C   0  0  0  0  0  0  0  0  0  0  0  0
    6.8248   12.2251   26.2298 C   0  0  0  0  0  0  0  0  0  0  0  0
    6.0393   11.1688   26.6740 C   0  0  0  0  0  0  0  0  0  0  0  0
    6.3760    9.8899   26.2695 C   0  0  0  0  0  0  0  0  0  0  0  0
    7.4301    9.6065   25.4699 N   0  0  0  0  0  0  0  0  0  0  0  0
    8.1863   10.6515   25.0460 C   0  0  0  0  0  0  0  0  0  0  0  0
  1  2  1  0
  2  3  1  0
  3  4  1  0
  4  5  2  0
  4  6  2  0
  4  7  1  0
  7  8  2  0
  8  9  1  0
  9 10  2  0
 10 11  1  0
 11 12  2  0
 12  7  1  0
M  END
>  <inchikey>  (236) 
HNEOZDURNOEMOY-UHFFFAOYSA-N

>  <energy_score>  (236) 
-16.716012

>  <subsites>  (236) 
1 - Active Site

>  <alias>  (236) 
C15025-P229

>  <tags>  (236) 
openbind_a71ev2a_c1_scaffolds,BulkDock Fragalysis export,openbind_a71ev2a_c1_knitwork_impure,fragmenstein_placed

>  <distance_score>  (236) 
0.768369

>  <placement_batch>  (236) 
openbind_a71ev2a_c1_knitwork_impure

>  <name>  (236) 
C15025-P229

>  <ref_mols>  (236) 
A0719a,A3869a

>  <smiles>  (236) 
CCNS(=O)(=O)c1cccnc1

>  <HIPPO Compound ID>  (236) 
8437

>  <HIPPO Pose ID>  (236) 
385460

>  <ref_pdb>  (236) 
A3564a

$$$$
C15027-P229
     RDKit          3D

 13 13  0  0  0  0  0  0  0  0999 V2000
   11.9602   15.1611   23.1680 C   0  0  0  0  0  0  0  0  0  0  0  0
   11.3934   13.9805   23.4366 C   0  0  0  0  0  0  0  0  0  0  0  0
   10.3018   13.3807   22.6088 C   0  0  0  0  0  0  0  0  0  0  0  0
    8.9110   13.3846   23.2220 C   0  0  0  0  0  0  0  0  0  0  0  0
    7.9064   13.3684   22.4950 O   0  0  0  0  0  0  0  0  0  0  0  0
    8.7550   13.2552   24.7395 C   0  0  1  0  0  0  0  0  0  0  0  0
    7.8978   14.3189   25.1635 O   0  0  0  0  0  0  0  0  0  0  0  0
    8.1655   11.9155   25.1302 C   0  0  0  0  0  0  0  0  0  0  0  0
    7.0775   11.8149   26.0071 C   0  0  0  0  0  0  0  0  0  0  0  0
    6.5550   10.5649   26.2882 C   0  0  0  0  0  0  0  0  0  0  0  0
    7.0538    9.4203   25.7812 N   0  0  0  0  0  0  0  0  0  0  0  0
    8.1221    9.5315   24.9631 C   0  0  0  0  0  0  0  0  0  0  0  0
    8.7036   10.7332   24.6146 C   0  0  0  0  0  0  0  0  0  0  0  0
  1  2  2  0
  2  3  1  0
  3  4  1  0
  4  5  2  0
  4  6  1  0
  6  7  1  6
  6  8  1  0
  8  9  2  0
  9 10  1  0
 10 11  2  0
 11 12  1  0
 12 13  2  0
 13  8  1  0
M  END
>  <inchikey>  (237) 
QFOVZMCLJFNOLH-UHFFFAOYSA-N

>  <energy_score>  (237) 
-8.083075

>  <subsites>  (237) 
1 - Active Site

>  <alias>  (237) 
C15027-P229

>  <tags>  (237) 
openbind_a71ev2a_c1_scaffolds,BulkDock Fragalysis export,openbind_a71ev2a_c1_knitwork_impure,fragmenstein_placed

>  <distance_score>  (237) 
0.948363

>  <placement_batch>  (237) 
openbind_a71ev2a_c1_knitwork_impure

>  <name>  (237) 
C15027-P229

>  <ref_mols>  (237) 
A0719a,A3869a

>  <smiles>  (237) 
C=CCC(=O)[C@@H](O)c1ccncc1

>  <HIPPO Compound ID>  (237) 
9817

>  <HIPPO Pose ID>  (237) 
385462

>  <ref_pdb>  (237) 
A3564a

$$$$
C15036-P229
     RDKit          3D

 14 14  0  0  0  0  0  0  0  0999 V2000
   12.4053   16.0823   21.6470 N   0  0  0  0  0  0  0  0  0  0  0  0
   11.9015   15.1913   22.1886 C   0  0  0  0  0  0  0  0  0  0  0  0
   11.1915   14.1154   22.8809 C   0  0  0  0  0  0  0  0  0  0  0  0
    9.6969   14.2417   22.5942 C   0  0  0  0  0  0  0  0  0  0  0  0
    8.8154   13.2187   23.2595 N   0  0  0  0  0  0  0  0  0  0  0  0
    8.9562   13.1494   24.9419 S   0  0  0  0  0  0  0  0  0  0  0  0
   10.2870   12.7012   25.2729 O   0  0  0  0  0  0  0  0  0  0  0  0
    8.4399   14.4082   25.4300 O   0  0  0  0  0  0  0  0  0  0  0  0
    7.8490   11.8839   25.4212 C   0  0  0  0  0  0  0  0  0  0  0  0
    6.7626   12.1701   26.2460 C   0  0  0  0  0  0  0  0  0  0  0  0
    5.9650   11.1263   26.6965 C   0  0  0  0  0  0  0  0  0  0  0  0
    6.2885    9.8412   26.3019 C   0  0  0  0  0  0  0  0  0  0  0  0
    7.3418    9.5400   25.5074 N   0  0  0  0  0  0  0  0  0  0  0  0
    8.1125   10.5716   25.0812 C   0  0  0  0  0  0  0  0  0  0  0  0
  1  2  3  0
  2  3  1  0
  3  4  1  0
  4  5  1  0
  5  6  1  0
  6  7  2  0
  6  8  2  0
  6  9  1  0
  9 10  2  0
 10 11  1  0
 11 12  2  0
 12 13  1  0
 13 14  2  0
 14  9  1  0
M  END
>  <inchikey>  (238) 
SUDOFTVBCPEFQK-UHFFFAOYSA-N

>  <energy_score>  (238) 
-26.120469

>  <subsites>  (238) 
1 - Active Site

>  <alias>  (238) 
C15036-P229

>  <tags>  (238) 
openbind_a71ev2a_c1_scaffolds,BulkDock Fragalysis export,openbind_a71ev2a_c1_knitwork_impure,fragmenstein_placed

>  <distance_score>  (238) 
0.737327

>  <placement_batch>  (238) 
openbind_a71ev2a_c1_knitwork_impure

>  <name>  (238) 
C15036-P229

>  <ref_mols>  (238) 
A0719a,A3869a

>  <smiles>  (238) 
N#CCCNS(=O)(=O)c1cccnc1

>  <HIPPO Compound ID>  (238) 
4710

>  <HIPPO Pose ID>  (238) 
385470

>  <ref_pdb>  (238) 
A3564a

$$$$
C15048-P229
     RDKit          3D

 16 16  0  0  0  0  0  0  0  0999 V2000
    6.3762   15.0106   27.1569 C   0  0  0  0  0  0  0  0  0  0  0  0
    7.7517   14.4871   26.7449 C   0  0  0  0  0  0  0  0  0  0  0  0
    7.8674   13.7591   25.3746 C   0  0  2  0  0  0  0  0  0  0  0  0
    6.9859   14.4415   24.4063 N   0  0  0  0  0  0  0  0  0  0  0  0
    7.4486   14.4119   22.7919 S   0  0  0  0  0  0  0  0  0  0  0  0
    8.5729   15.3087   22.6898 O   0  0  0  0  0  0  0  0  0  0  0  0
    7.5029   13.0604   22.3046 O   0  0  0  0  0  0  0  0  0  0  0  0
    6.1010   15.1589   22.1462 N   0  0  0  0  0  0  0  0  0  0  0  0
    5.8084   16.4775   22.6950 C   0  0  0  0  0  0  0  0  0  0  0  0
    4.8905   14.3478   21.9501 C   0  0  0  0  0  0  0  0  0  0  0  0
    7.6623   12.2544   25.4624 C   0  0  0  0  0  0  0  0  0  0  0  0
    6.6367   11.6422   26.1910 C   0  0  0  0  0  0  0  0  0  0  0  0
    6.5475   10.2567   26.2050 C   0  0  0  0  0  0  0  0  0  0  0  0
    7.3946    9.4442   25.5460 N   0  0  0  0  0  0  0  0  0  0  0  0
    8.3607   10.0410   24.8169 C   0  0  0  0  0  0  0  0  0  0  0  0
    8.5350   11.4143   24.7552 C   0  0  0  0  0  0  0  0  0  0  0  0
  1  2  1  0
  3  2  1  1
  3  4  1  0
  4  5  1  0
  5  6  2  0
  5  7  2  0
  5  8  1  0
  8  9  1  0
  8 10  1  0
  3 11  1  0
 11 12  2  0
 12 13  1  0
 13 14  2  0
 14 15  1  0
 15 16  2  0
 16 11  1  0
M  END
>  <inchikey>  (239) 
FIHUVLYGVBEHSM-UHFFFAOYSA-N

>  <energy_score>  (239) 
-29.59201

>  <subsites>  (239) 
1 - Active Site

>  <alias>  (239) 
C15048-P229

>  <tags>  (239) 
openbind_a71ev2a_c1_scaffolds,BulkDock Fragalysis export,openbind_a71ev2a_c1_knitwork_impure,fragmenstein_placed

>  <distance_score>  (239) 
0.804684

>  <placement_batch>  (239) 
openbind_a71ev2a_c1_knitwork_impure

>  <name>  (239) 
C15048-P229

>  <ref_mols>  (239) 
A0719a,A3869a

>  <smiles>  (239) 
CC[C@H](NS(=O)(=O)N(C)C)c1ccncc1

>  <HIPPO Compound ID>  (239) 
3516

>  <HIPPO Pose ID>  (239) 
385478

>  <ref_pdb>  (239) 
A3564a

$$$$
C15065-P229
     RDKit          3D

 13 13  0  0  0  0  0  0  0  0999 V2000
   12.1339   15.0308   23.1140 C   0  0  0  0  0  0  0  0  0  0  0  0
   11.2489   13.9960   23.5360 O   0  0  0  0  0  0  0  0  0  0  0  0
    9.9746   14.1474   22.9061 C   0  0  0  0  0  0  0  0  0  0  0  0
    9.0388   13.0098   23.3146 C   0  0  2  0  0  0  0  0  0  0  0  0
    7.8404   13.0470   22.5229 O   0  0  0  0  0  0  0  0  0  0  0  0
    8.5893   13.1069   24.7691 C   0  0  0  0  0  0  0  0  0  0  0  0
    8.6694   14.1434   25.4288 O   0  0  0  0  0  0  0  0  0  0  0  0
    7.8675   11.9550   25.3657 C   0  0  0  0  0  0  0  0  0  0  0  0
    6.8965   12.2150   26.3382 C   0  0  0  0  0  0  0  0  0  0  0  0
    6.1443   11.1714   26.8650 C   0  0  0  0  0  0  0  0  0  0  0  0
    6.4012    9.8922   26.4122 C   0  0  0  0  0  0  0  0  0  0  0  0
    7.3577    9.5963   25.5048 N   0  0  0  0  0  0  0  0  0  0  0  0
    8.0665   10.6351   24.9895 C   0  0  0  0  0  0  0  0  0  0  0  0
  1  2  1  0
  2  3  1  0
  3  4  1  0
  4  5  1  6
  4  6  1  0
  6  7  2  0
  6  8  1  0
  8  9  2  0
  9 10  1  0
 10 11  2  0
 11 12  1  0
 12 13  2  0
 13  8  1  0
M  END
>  <inchikey>  (240) 
OCFFTUGEJZIYTH-UHFFFAOYSA-N

>  <energy_score>  (240) 
-23.26014

>  <subsites>  (240) 
1 - Active Site

>  <alias>  (240) 
C15065-P229

>  <tags>  (240) 
openbind_a71ev2a_c1_scaffolds,BulkDock Fragalysis export,openbind_a71ev2a_c1_knitwork_impure,fragmenstein_placed

>  <distance_score>  (240) 
0.714755

>  <placement_batch>  (240) 
openbind_a71ev2a_c1_knitwork_impure

>  <name>  (240) 
C15065-P229

>  <ref_mols>  (240) 
A0719a,A3869a

>  <smiles>  (240) 
COC[C@H](O)C(=O)c1cccnc1

>  <HIPPO Compound ID>  (240) 
15029

>  <HIPPO Pose ID>  (240) 
385493

>  <ref_pdb>  (240) 
A3564a

$$$$
C15067-P229
     RDKit          3D

 15 15  0  0  0  0  0  0  0  0999 V2000
   10.7373   15.8331   20.7906 C   0  0  0  0  0  0  0  0  0  0  0  0
   11.8381   15.4527   21.7725 C   0  0  0  0  0  0  0  0  0  0  0  0
   11.2959   15.2497   23.1889 C   0  0  0  0  0  0  0  0  0  0  0  0
   11.3087   13.8814   23.6147 O   0  0  0  0  0  0  0  0  0  0  0  0
   10.3757   13.0547   22.9410 C   0  0  0  0  0  0  0  0  0  0  0  0
    8.9294   13.0849   23.4202 C   0  0  0  0  0  0  0  0  0  0  0  0
    7.9804   13.0564   22.6276 O   0  0  0  0  0  0  0  0  0  0  0  0
    8.6945   13.1124   24.9220 C   0  0  1  0  0  0  0  0  0  0  0  0
    8.0900   14.3792   25.2057 O   0  0  0  0  0  0  0  0  0  0  0  0
    7.8330   11.9829   25.4421 C   0  0  0  0  0  0  0  0  0  0  0  0
    6.8141   12.2089   26.3769 C   0  0  0  0  0  0  0  0  0  0  0  0
    6.0460   11.1529   26.8529 C   0  0  0  0  0  0  0  0  0  0  0  0
    6.3334    9.8832   26.3979 C   0  0  0  0  0  0  0  0  0  0  0  0
    7.3317    9.6083   25.5340 N   0  0  0  0  0  0  0  0  0  0  0  0
    8.0519   10.6585   25.0704 C   0  0  0  0  0  0  0  0  0  0  0  0
  1  2  1  0
  2  3  1  0
  3  4  1  0
  4  5  1  0
  5  6  1  0
  6  7  2  0
  6  8  1  0
  8  9  1  6
  8 10  1  0
 10 11  2  0
 11 12  1  0
 12 13  2  0
 13 14  1  0
 14 15  2  0
 15 10  1  0
M  END
>  <inchikey>  (241) 
LDZSMRRPHYMGJB-UHFFFAOYSA-N

>  <energy_score>  (241) 
-21.024412

>  <subsites>  (241) 
1 - Active Site

>  <alias>  (241) 
C15067-P229

>  <tags>  (241) 
openbind_a71ev2a_c1_scaffolds,BulkDock Fragalysis export,openbind_a71ev2a_c1_knitwork_impure,fragmenstein_placed

>  <distance_score>  (241) 
0.873744

>  <placement_batch>  (241) 
openbind_a71ev2a_c1_knitwork_impure

>  <name>  (241) 
C15067-P229

>  <ref_mols>  (241) 
A0719a,A3869a

>  <smiles>  (241) 
CCCOCC(=O)[C@@H](O)c1cccnc1

>  <HIPPO Compound ID>  (241) 
22809

>  <HIPPO Pose ID>  (241) 
385495

>  <ref_pdb>  (241) 
A3564a

$$$$
C8146-P229
     RDKit          3D

 18 18  0  0  0  0  0  0  0  0999 V2000
   11.6283   15.0885   22.7386 C   0  0  0  0  0  0  0  0  0  0  0  0
   10.9968   15.5697   21.4418 C   0  0  0  0  0  0  0  0  0  0  0  0
    9.5826   15.0149   21.1735 C   0  0  0  0  0  0  0  0  0  0  0  0
    8.5800   15.3616   22.2394 N   0  0  0  0  0  0  0  0  0  0  0  0
    8.2396   16.8026   22.2299 C   0  0  0  0  0  0  0  0  0  0  0  0
    7.4886   17.1897   23.4865 C   0  0  0  0  0  0  0  0  0  0  0  0
    7.1907   14.3962   22.3619 S   0  0  0  0  0  0  0  0  0  0  0  0
    7.4645   13.0526   21.9398 O   0  0  0  0  0  0  0  0  0  0  0  0
    6.0264   15.0669   21.8353 O   0  0  0  0  0  0  0  0  0  0  0  0
    7.0137   14.3059   24.0223 N   0  0  0  0  0  0  0  0  0  0  0  0
    8.1660   14.0705   24.9241 C   0  0  1  0  0  0  0  0  0  0  0  0
    7.7297   14.5989   26.3041 C   0  0  0  0  0  0  0  0  0  0  0  0
    8.6377   12.5990   25.0396 C   0  0  0  0  0  0  0  0  0  0  0  0
    7.4967   11.6408   25.3629 C   0  0  0  0  0  0  0  0  0  0  0  0
    7.9025   10.1894   25.2964 C   0  0  0  0  0  0  0  0  0  0  0  0
    8.4574    9.8640   24.0082 N   0  0  0  0  0  0  0  0  0  0  0  0
    9.6355   10.6248   23.6574 C   0  0  0  0  0  0  0  0  0  0  0  0
    9.5685   12.1302   23.9096 C   0  0  0  0  0  0  0  0  0  0  0  0
  1  2  1  0
  2  3  1  0
  3  4  1  0
  4  5  1  0
  5  6  1  0
  4  7  1  0
  7  8  2  0
  7  9  2  0
  7 10  1  0
 10 11  1  0
 11 12  1  1
 11 13  1  0
 13 14  1  0
 14 15  1  0
 15 16  1  0
 16 17  1  0
 17 18  1  0
 18 13  1  0
M  END
>  <inchikey>  (242) 
BMGQAPYAWGCTSL-UHFFFAOYSA-N

>  <energy_score>  (242) 
-49.117375

>  <subsites>  (242) 
1 - Active Site

>  <alias>  (242) 
C8146-P229

>  <tags>  (242) 
openbind_a71ev2a_c1_scaffolds,BulkDock Fragalysis export,openbind_a71ev2a_c1_knitwork_impure,fragmenstein_placed

>  <distance_score>  (242) 
0.972308

>  <placement_batch>  (242) 
openbind_a71ev2a_c1_knitwork_impure

>  <name>  (242) 
C8146-P229

>  <ref_mols>  (242) 
A0719a,A3869a

>  <smiles>  (242) 
CCCN(CC)S(=O)(=O)N[C@@H](C)C1CCNCC1

>  <HIPPO Compound ID>  (242) 
36659

>  <HIPPO Pose ID>  (242) 
385512

>  <ref_pdb>  (242) 
A3564a

$$$$
C8163-P229
     RDKit          3D

 15 15  0  0  0  0  0  0  0  0999 V2000
   11.0353   15.9027   20.1756 C   0  0  0  0  0  0  0  0  0  0  0  0
   11.5449   15.7177   21.2462 C   0  0  0  0  0  0  0  0  0  0  0  0
   12.0486   15.4161   22.5917 C   0  0  0  0  0  0  0  0  0  0  0  0
   11.4398   14.1027   23.0806 C   0  0  0  0  0  0  0  0  0  0  0  0
    9.9726   14.2733   23.1942 N   0  0  0  0  0  0  0  0  0  0  0  0
    9.0608   12.9010   23.4454 S   0  0  0  0  0  0  0  0  0  0  0  0
    7.9118   13.0126   22.5741 O   0  0  0  0  0  0  0  0  0  0  0  0
    9.9230   11.7426   23.4428 O   0  0  0  0  0  0  0  0  0  0  0  0
    8.5071   13.1703   25.1128 C   0  0  0  0  0  0  0  0  0  0  0  0
    7.4386   12.1484   25.5022 C   0  0  2  0  0  0  0  0  0  0  0  0
    6.8434   12.4464   26.8756 C   0  0  0  0  0  0  0  0  0  0  0  0
    5.8349   11.3879   27.3227 C   0  0  0  0  0  0  0  0  0  0  0  0
    5.9359   10.0704   26.5660 C   0  0  0  0  0  0  0  0  0  0  0  0
    7.3075    9.7485   26.2443 N   0  0  0  0  0  0  0  0  0  0  0  0
    7.9553   10.7106   25.3733 C   0  0  0  0  0  0  0  0  0  0  0  0
  1  2  3  0
  2  3  1  0
  3  4  1  0
  4  5  1  0
  5  6  1  0
  6  7  2  0
  6  8  2  0
  6  9  1  0
 10  9  1  1
 10 11  1  0
 11 12  1  0
 12 13  1  0
 13 14  1  0
 14 15  1  0
 15 10  1  0
M  END
>  <inchikey>  (243) 
ZWZHRYGYRLXIEQ-UHFFFAOYSA-N

>  <energy_score>  (243) 
-56.504397

>  <subsites>  (243) 
1 - Active Site

>  <alias>  (243) 
C8163-P229

>  <tags>  (243) 
openbind_a71ev2a_c1_scaffolds,BulkDock Fragalysis export,openbind_a71ev2a_c1_knitwork_impure,fragmenstein_placed

>  <distance_score>  (243) 
0.988497

>  <placement_batch>  (243) 
openbind_a71ev2a_c1_knitwork_impure

>  <name>  (243) 
C8163-P229

>  <ref_mols>  (243) 
A0719a,A3869a

>  <smiles>  (243) 
C#CCCNS(=O)(=O)C[C@@H]1CCCNC1

>  <HIPPO Compound ID>  (243) 
2378

>  <HIPPO Pose ID>  (243) 
385523

>  <ref_pdb>  (243) 
A3564a

$$$$
C8176-P229
     RDKit          3D

 15 15  0  0  0  0  0  0  0  0999 V2000
    8.1528   14.7710   25.3336 C   0  0  0  0  0  0  0  0  0  0  0  0
    8.6524   13.4019   24.8557 C   0  0  2  0  0  0  0  0  0  0  0  0
    9.8854   13.1456   25.5230 O   0  0  0  0  0  0  0  0  0  0  0  0
    8.8021   13.4627   23.3066 C   0  0  0  0  0  0  0  0  0  0  0  0
    7.9381   12.9784   22.5628 O   0  0  0  0  0  0  0  0  0  0  0  0
    9.9866   14.2393   22.7560 C   0  0  0  0  0  0  0  0  0  0  0  0
   11.0082   14.3747   23.6522 F   0  0  0  0  0  0  0  0  0  0  0  0
   10.5201   13.6832   21.6474 F   0  0  0  0  0  0  0  0  0  0  0  0
    9.3190   15.9947   22.2717 Br  0  0  0  0  0  0  0  0  0  0  0  0
    7.6335   12.2675   25.2328 C   0  0  2  0  0  0  0  0  0  0  0  0
    7.0003   12.4050   26.6256 C   0  0  0  0  0  0  0  0  0  0  0  0
    6.1259   11.2255   27.0411 C   0  0  0  0  0  0  0  0  0  0  0  0
    6.3462    9.9588   26.2353 C   0  0  0  0  0  0  0  0  0  0  0  0
    7.7237    9.7939   25.8307 N   0  0  0  0  0  0  0  0  0  0  0  0
    8.2318   10.8689   24.9876 C   0  0  0  0  0  0  0  0  0  0  0  0
  2  1  1  1
  2  3  1  0
  2  4  1  0
  4  5  2  0
  4  6  1  0
  6  7  1  0
  6  8  1  0
  6  9  1  0
  2 10  1  0
 10 11  1  1
 11 12  1  0
 12 13  1  0
 13 14  1  0
 14 15  1  0
 15 10  1  0
M  END
>  <inchikey>  (244) 
ZIPKJCBHPHJSDG-UHFFFAOYSA-N

>  <energy_score>  (244) 
-22.998993

>  <subsites>  (244) 
1 - Active Site

>  <alias>  (244) 
C8176-P229

>  <tags>  (244) 
openbind_a71ev2a_c1_scaffolds,BulkDock Fragalysis export,openbind_a71ev2a_c1_knitwork_impure,fragmenstein_placed

>  <distance_score>  (244) 
0.855497

>  <placement_batch>  (244) 
openbind_a71ev2a_c1_knitwork_impure

>  <name>  (244) 
C8176-P229

>  <ref_mols>  (244) 
A0719a,A3869a

>  <smiles>  (244) 
C[C@](O)(C(=O)C(F)(F)Br)[C@@H]1CCCNC1

>  <HIPPO Compound ID>  (244) 
12945

>  <HIPPO Pose ID>  (244) 
385534

>  <ref_pdb>  (244) 
A3564a

$$$$
C34425-P31
     RDKit          3D

 24 26  0  0  0  0  0  0  0  0999 V2000
    8.2570   12.4238   -1.9695 C   0  0  0  0  0  0  0  0  0  0  0  0
    7.8451   12.1318   -0.5282 C   0  0  1  0  0  0  0  0  0  0  0  0
    8.1944   10.7015   -0.1197 C   0  0  0  0  0  0  0  0  0  0  0  0
    7.5536   10.3896    1.2265 C   0  0  0  0  0  0  0  0  0  0  0  0
    7.6274   11.5418    2.1952 C   0  0  0  0  0  0  0  0  0  0  0  0
    7.2224   11.3181    3.5208 C   0  0  0  0  0  0  0  0  0  0  0  0
    7.2392   12.3487    4.4557 C   0  0  0  0  0  0  0  0  0  0  0  0
    7.6561   13.6159    4.0725 C   0  0  0  0  0  0  0  0  0  0  0  0
    8.0503   13.8484    2.7517 C   0  0  0  0  0  0  0  0  0  0  0  0
    8.0414   12.8247    1.7888 C   0  0  0  0  0  0  0  0  0  0  0  0
    8.3904   13.0934    0.4508 N   0  0  0  0  0  0  0  0  0  0  0  0
    9.6972   13.7391    0.2437 C   0  0  0  0  0  0  0  0  0  0  0  0
   10.8828   12.7706    0.3490 C   0  0  0  0  0  0  0  0  0  0  0  0
   12.1451   13.4615    0.2761 N   0  0  0  0  0  0  0  0  0  0  0  0
   12.8303   14.4158    1.2880 C   0  0  0  0  0  0  0  0  0  0  0  0
   12.4432   14.8491    2.3013 O   0  0  0  0  0  0  0  0  0  0  0  0
   14.1628   14.8056    0.6377 C   0  0  0  0  0  0  0  0  0  0  0  0
   14.9317   13.6955    0.2011 O   0  0  0  0  0  0  0  0  0  0  0  0
   15.7272   13.0480    1.2024 C   0  0  0  0  0  0  0  0  0  0  0  0
   16.6658   14.0052    1.9437 C   0  0  0  0  0  0  0  0  0  0  0  0
   17.6672   13.2468    2.7940 C   0  0  0  0  0  0  0  0  0  0  0  0
   18.4093   12.3213    2.0090 O   0  0  0  0  0  0  0  0  0  0  0  0
   17.5748   11.3409    1.3904 C   0  0  0  0  0  0  0  0  0  0  0  0
   16.5522   11.9850    0.4727 C   0  0  0  0  0  0  0  0  0  0  0  0
  2  1  1  6
  2  3  1  0
  3  4  1  0
  4  5  1  0
  5  6  2  0
  6  7  1  0
  7  8  2  0
  8  9  1  0
  9 10  2  0
 10 11  1  0
 11 12  1  0
 12 13  1  0
 13 14  1  0
 14 15  1  0
 15 16  2  0
 15 17  1  0
 17 18  1  0
 18 19  1  0
 19 20  1  0
 20 21  1  0
 21 22  1  0
 22 23  1  0
 23 24  1  0
 11  2  1  0
 24 19  1  0
 10  5  1  0
M  END
>  <inchikey>  (245) 
DKGPPHBODADFID-UHFFFAOYSA-N

>  <energy_score>  (245) 
-26.621136

>  <subsites>  (245) 
6 - A0486/A/147/1,3 - A0541/A/147/1

>  <alias>  (245) 
C34425-P31

>  <tags>  (245) 
openbind_a71ev2a_c1_scaffolds,BulkDock Fragalysis export,openbind_a71ev2a_c1_knitwork_impure,fragmenstein_placed

>  <distance_score>  (245) 
0.621048

>  <placement_batch>  (245) 
openbind_a71ev2a_c1_knitwork_impure

>  <name>  (245) 
C34425-P31

>  <ref_mols>  (245) 
A0608a,A0586a

>  <smiles>  (245) 
C[C@H]1CCc2ccccc2N1CCNC(=O)COC1CCOCC1

>  <HIPPO Compound ID>  (245) 
34425

>  <HIPPO Pose ID>  (245) 
386422

>  <ref_pdb>  (245) 
A3564a

$$$$
C901-P190
     RDKit          3D

 23 26  0  0  0  0  0  0  0  0999 V2000
   26.3226   16.5777   25.0092 O   0  0  0  0  0  0  0  0  0  0  0  0
   25.3913   17.2766   25.1279 C   0  0  0  0  0  0  0  0  0  0  0  0
   25.3571   18.6976   24.5815 C   0  0  0  0  0  0  0  0  0  0  0  0
   24.4816   18.8434   23.3394 C   0  0  0  0  0  0  0  0  0  0  0  0
   24.9940   19.9574   22.4586 C   0  0  0  0  0  0  0  0  0  0  0  0
   24.3752   21.2245   22.4398 C   0  0  0  0  0  0  0  0  0  0  0  0
   24.8860   22.2569   21.6431 C   0  0  0  0  0  0  0  0  0  0  0  0
   26.0032   21.9927   20.8790 C   0  0  0  0  0  0  0  0  0  0  0  0
   26.6147   20.7645   20.8974 C   0  0  0  0  0  0  0  0  0  0  0  0
   26.1396   19.7336   21.6760 C   0  0  0  0  0  0  0  0  0  0  0  0
   27.7014   20.7094   20.0833 O   0  0  0  0  0  0  0  0  0  0  0  0
   27.6455   22.0136   19.4767 C   0  0  0  0  0  0  0  0  0  0  0  0
   26.6271   22.8671   20.0444 O   0  0  0  0  0  0  0  0  0  0  0  0
   24.0576   17.0556   25.8937 N   0  0  0  0  0  0  0  0  0  0  0  0
   23.5880   15.9636   26.5483 C   0  0  0  0  0  0  0  0  0  0  0  0
   24.2528   14.7332   26.7232 C   0  0  0  0  0  0  0  0  0  0  0  0
   23.3945   13.9705   27.4770 C   0  0  0  0  0  0  0  0  0  0  0  0
   22.2987   14.7565   27.7009 N   0  0  0  0  0  0  0  0  0  0  0  0
   21.1704   14.3134   28.5580 C   0  0  0  0  0  0  0  0  0  0  0  0
   19.9928   15.3100   28.6719 C   0  0  0  0  0  0  0  0  0  0  0  0
   19.3347   14.5948   27.4772 C   0  0  0  0  0  0  0  0  0  0  0  0
   20.2028   13.3658   27.8077 C   0  0  0  0  0  0  0  0  0  0  0  0
   22.3958   15.9802   27.1465 N   0  0  0  0  0  0  0  0  0  0  0  0
  1  2  2  0
  2  3  1  0
  3  4  1  0
  4  5  1  0
  5  6  2  0
  6  7  1  0
  7  8  2  0
  8  9  1  0
  9 10  2  0
  9 11  1  0
 11 12  1  0
 12 13  1  0
  2 14  1  0
 14 15  1  0
 15 16  1  0
 16 17  2  0
 17 18  1  0
 18 19  1  0
 19 20  1  0
 20 21  1  0
 21 22  1  0
 18 23  1  0
 10  5  1  0
 23 15  2  0
 13  8  1  0
 22 19  1  0
M  END
>  <inchikey>  (246) 
TXLFUDQYNGTYGY-UHFFFAOYSA-N

>  <energy_score>  (246) 
-38.528242

>  <subsites>  (246) 
1 - Active Site,5 - A3181/A/202/1

>  <alias>  (246) 
C901-P190

>  <tags>  (246) 
openbind_a71ev2a_c1_scaffolds,BulkDock Fragalysis export,openbind_a71ev2a_c1_knitwork_impure,fragmenstein_placed

>  <distance_score>  (246) 
0.986894

>  <placement_batch>  (246) 
openbind_a71ev2a_c1_knitwork_impure

>  <name>  (246) 
C901-P190

>  <ref_mols>  (246) 
A0351b,A3509a

>  <smiles>  (246) 
O=C(CCc1ccc2c(c1)OCO2)Nc1ccn(C2CCC2)n1

>  <HIPPO Compound ID>  (246) 
37776

>  <HIPPO Pose ID>  (246) 
386455

>  <ref_pdb>  (246) 
A3564a

$$$$
C727-P275
     RDKit          3D

 12 13  0  0  0  0  0  0  0  0999 V2000
    7.3676   12.0173   25.3509 C   0  0  0  0  0  0  0  0  0  0  0  0
    8.0207   13.0048   24.6229 C   0  0  0  0  0  0  0  0  0  0  0  0
    9.0542   12.6335   23.7706 C   0  0  0  0  0  0  0  0  0  0  0  0
    9.8224   13.5429   23.0360 N   0  0  0  0  0  0  0  0  0  0  0  0
   10.9491   14.0820   23.8104 C   0  0  0  0  0  0  0  0  0  0  0  0
   11.9707   14.6802   22.8491 C   0  0  0  0  0  0  0  0  0  0  0  0
   11.3438   15.7366   21.9468 C   0  0  0  0  0  0  0  0  0  0  0  0
   10.1040   15.1843   21.2450 C   0  0  0  0  0  0  0  0  0  0  0  0
    9.1200   14.5677   22.2463 C   0  0  0  0  0  0  0  0  0  0  0  0
    9.3576   11.2716   23.6768 C   0  0  0  0  0  0  0  0  0  0  0  0
    8.6487   10.3537   24.4369 C   0  0  0  0  0  0  0  0  0  0  0  0
    7.6699   10.7003   25.2965 N   0  0  0  0  0  0  0  0  0  0  0  0
  1  2  2  0
  2  3  1  0
  3  4  1  0
  4  5  1  0
  5  6  1  0
  6  7  1  0
  7  8  1  0
  8  9  1  0
  3 10  2  0
 10 11  1  0
 11 12  2  0
 12  1  1  0
  9  4  1  0
M  END
>  <inchikey>  (247) 
DXNJQCFHVKJTJF-UHFFFAOYSA-N

>  <energy_score>  (247) 
-16.395445

>  <subsites>  (247) 
1 - Active Site

>  <alias>  (247) 
C727-P275

>  <tags>  (247) 
openbind_a71ev2a_c1_scaffolds,BulkDock Fragalysis export,openbind_a71ev2a_c1_knitwork_impure,fragmenstein_placed

>  <distance_score>  (247) 
0.972796

>  <placement_batch>  (247) 
openbind_a71ev2a_c1_knitwork_impure

>  <name>  (247) 
C727-P275

>  <ref_mols>  (247) 
A3623a,A4031b

>  <smiles>  (247) 
c1cc(N2CCCCC2)ccn1

>  <HIPPO Compound ID>  (247) 
10783

>  <HIPPO Pose ID>  (247) 
386787

>  <ref_pdb>  (247) 
A3564a

$$$$
C7480-P437
     RDKit          3D

 13 13  0  0  0  0  0  0  0  0999 V2000
    9.0469    9.2012   23.6005 C   0  0  0  0  0  0  0  0  0  0  0  0
    9.0665   10.5361   24.2717 C   0  0  0  0  0  0  0  0  0  0  0  0
   10.3523   10.9356   24.9299 C   0  0  0  0  0  0  0  0  0  0  0  0
    7.9840   11.3375   24.2710 C   0  0  0  0  0  0  0  0  0  0  0  0
    8.0900   12.7314   24.7782 C   0  0  0  0  0  0  0  0  0  0  0  0
    7.6869   13.0740   25.8185 O   0  0  0  0  0  0  0  0  0  0  0  0
    8.8527   13.5267   23.6817 N   0  0  0  0  0  0  0  0  0  0  0  0
    9.1751   14.8696   23.6077 N   0  0  0  0  0  0  0  0  0  0  0  0
   10.5396   15.1211   24.0846 C   0  0  0  0  0  0  0  0  0  0  0  0
   11.6250   14.6621   23.1094 C   0  0  0  0  0  0  0  0  0  0  0  0
   11.4149   15.2814   21.7357 C   0  0  0  0  0  0  0  0  0  0  0  0
   10.0046   15.0054   21.2316 C   0  0  0  0  0  0  0  0  0  0  0  0
    8.9516   15.4269   22.2614 C   0  0  0  0  0  0  0  0  0  0  0  0
  1  2  1  0
  2  3  1  0
  2  4  2  3
  4  5  1  0
  5  6  2  0
  5  7  1  0
  7  8  1  0
  8  9  1  0
  9 10  1  0
 10 11  1  0
 11 12  1  0
 12 13  1  0
 13  8  1  0
M  END
>  <inchikey>  (248) 
GPGBQKMPCMYFLT-UHFFFAOYSA-N

>  <energy_score>  (248) 
-11.498933

>  <subsites>  (248) 
1 - Active Site

>  <alias>  (248) 
C7480-P437

>  <tags>  (248) 
openbind_a71ev2a_c1_scaffolds,BulkDock Fragalysis export,openbind_a71ev2a_c1_knitwork_impure,fragmenstein_placed

>  <distance_score>  (248) 
0.937331

>  <placement_batch>  (248) 
openbind_a71ev2a_c1_knitwork_impure

>  <name>  (248) 
C7480-P437

>  <ref_mols>  (248) 
A1445a,A4701a

>  <smiles>  (248) 
CC(C)=CC(=O)NN1CCCCC1

>  <HIPPO Compound ID>  (248) 
2530

>  <HIPPO Pose ID>  (248) 
387554

>  <ref_pdb>  (248) 
A3564a

$$$$
C935-P161
     RDKit          3D

 22 25  0  0  0  0  0  0  0  0999 V2000
   21.2229   15.8571    1.4517 C   0  0  0  0  0  0  0  0  0  0  0  0
   22.2180   14.9104    2.1576 C   0  0  0  0  0  0  0  0  0  0  0  0
   23.2954   15.7940    2.7973 C   0  0  0  0  0  0  0  0  0  0  0  0
   21.4032   14.1675    3.2024 C   0  0  0  0  0  0  0  0  0  0  0  0
   22.7666   13.9308    1.1461 C   0  0  0  0  0  0  0  0  0  0  0  0
   22.1266   13.6004    0.0370 N   0  0  0  0  0  0  0  0  0  0  0  0
   22.9224   12.7820   -0.7123 N   0  0  0  0  0  0  0  0  0  0  0  0
   24.0363   12.5976   -0.0475 C   0  0  0  0  0  0  0  0  0  0  0  0
   23.9529   13.2349    1.1656 N   0  0  0  0  0  0  0  0  0  0  0  0
   25.0241   13.2397    2.1404 C   0  0  0  0  0  0  0  0  0  0  0  0
   26.1613   12.2552    1.8167 C   0  0  2  0  0  0  0  0  0  0  0  0
   27.3933   12.6370    2.5583 C   0  0  0  0  0  0  0  0  0  0  0  0
   28.0281   13.7873    2.5698 N   0  0  0  0  0  0  0  0  0  0  0  0
   29.1339   13.4950    3.3361 C   0  0  0  0  0  0  0  0  0  0  0  0
   30.2662   14.5528    3.6355 C   0  0  2  0  0  0  0  0  0  0  0  0
   30.3743   14.9930    5.1051 C   0  0  0  0  0  0  0  0  0  0  0  0
   29.4442   16.1469    4.7064 C   0  0  0  0  0  0  0  0  0  0  0  0
   29.8633   15.9490    3.3008 N   0  0  0  0  0  0  0  0  0  0  0  0
   29.1850   12.2356    3.7867 N   0  0  0  0  0  0  0  0  0  0  0  0
   28.0205   11.6615    3.2735 O   0  0  0  0  0  0  0  0  0  0  0  0
   26.4637   12.2399    0.3085 C   0  0  0  0  0  0  0  0  0  0  0  0
   25.2307   11.8445   -0.4926 C   0  0  0  0  0  0  0  0  0  0  0  0
  1  2  1  0
  2  3  1  0
  2  4  1  0
  2  5  1  0
  5  6  2  0
  6  7  1  0
  7  8  2  0
  8  9  1  0
  9 10  1  0
 10 11  1  0
 11 12  1  1
 12 13  2  0
 13 14  1  0
 15 14  1  1
 15 16  1  0
 16 17  1  0
 17 18  1  0
 14 19  2  0
 19 20  1  0
 11 21  1  0
 21 22  1  0
  9  5  1  0
 20 12  1  0
 22  8  1  0
 18 15  1  0
M  END
>  <inchikey>  (249) 
VMRRPEUPZRWAAJ-UHFFFAOYSA-N

>  <energy_score>  (249) 
-56.938217

>  <subsites>  (249) 
6 - A0486/A/147/1,1 - Active Site

>  <alias>  (249) 
C935-P161

>  <tags>  (249) 
openbind_a71ev2a_c1_scaffolds,BulkDock Fragalysis export,openbind_a71ev2a_c1_knitwork_impure,fragmenstein_placed

>  <distance_score>  (249) 
0.971995

>  <placement_batch>  (249) 
openbind_a71ev2a_c1_knitwork_impure

>  <name>  (249) 
C935-P161

>  <ref_mols>  (249) 
A3229a,A0239a

>  <smiles>  (249) 
CC(C)(C)c1nnc2n1C[C@H](c1nc([C@@H]3CCN3)no1)CC2

>  <HIPPO Compound ID>  (249) 
29365

>  <HIPPO Pose ID>  (249) 
387571

>  <ref_pdb>  (249) 
A3564a

$$$$
C15044-P213
     RDKit          3D

 15 15  0  0  0  0  0  0  0  0999 V2000
   10.6025   15.2914   19.5972 N   0  0  0  0  0  0  0  0  0  0  0  0
   11.3501   15.6794   20.3909 C   0  0  0  0  0  0  0  0  0  0  0  0
   12.2037   16.1412   21.4821 C   0  0  0  0  0  0  0  0  0  0  0  0
   12.1317   15.2075   22.6926 C   0  0  0  0  0  0  0  0  0  0  0  0
   10.7618   15.1701   23.3578 C   0  0  0  0  0  0  0  0  0  0  0  0
    9.9222   14.1667   22.6878 N   0  0  0  0  0  0  0  0  0  0  0  0
    8.3978   13.9075   23.3635 S   0  0  0  0  0  0  0  0  0  0  0  0
    8.2212   14.8983   24.4014 O   0  0  0  0  0  0  0  0  0  0  0  0
    7.4972   13.7311   22.2435 O   0  0  0  0  0  0  0  0  0  0  0  0
    8.5038   12.3212   24.1491 C   0  0  0  0  0  0  0  0  0  0  0  0
    9.2161   11.2905   23.5629 C   0  0  0  0  0  0  0  0  0  0  0  0
    8.9337   10.0133   24.0156 C   0  0  0  0  0  0  0  0  0  0  0  0
    7.9625    9.8453   25.0032 C   0  0  0  0  0  0  0  0  0  0  0  0
    7.3581   10.9501   25.5711 C   0  0  0  0  0  0  0  0  0  0  0  0
    7.6306   12.1966   25.1843 N   0  0  0  0  0  0  0  0  0  0  0  0
  1  2  3  0
  2  3  1  0
  3  4  1  0
  4  5  1  0
  5  6  1  0
  6  7  1  0
  7  8  2  0
  7  9  2  0
  7 10  1  0
 10 11  2  0
 11 12  1  0
 12 13  2  0
 13 14  1  0
 14 15  2  0
 15 10  1  0
M  END
>  <inchikey>  (250) 
QVJOVVVVXHHADP-UHFFFAOYSA-N

>  <energy_score>  (250) 
-17.773726

>  <subsites>  (250) 
1 - Active Site

>  <alias>  (250) 
C15044-P213

>  <tags>  (250) 
openbind_a71ev2a_c1_scaffolds,BulkDock Fragalysis export,openbind_a71ev2a_c1_knitwork_impure,fragmenstein_placed

>  <distance_score>  (250) 
0.898393

>  <placement_batch>  (250) 
openbind_a71ev2a_c1_knitwork_impure

>  <name>  (250) 
C15044-P213

>  <ref_mols>  (250) 
A0719a,A3548a

>  <smiles>  (250) 
N#CCCCNS(=O)(=O)c1ccccn1

>  <HIPPO Compound ID>  (250) 
20158

>  <HIPPO Pose ID>  (250) 
387895

>  <ref_pdb>  (250) 
A3564a

$$$$
C15051-P213
     RDKit          3D

 14 14  0  0  0  0  0  0  0  0999 V2000
    8.2317   14.8780   25.1921 C   0  0  0  0  0  0  0  0  0  0  0  0
    8.7891   13.5729   24.6053 C   0  0  2  0  0  0  0  0  0  0  0  0
   10.1433   13.4052   25.0550 O   0  0  0  0  0  0  0  0  0  0  0  0
    8.7212   13.6955   23.0701 C   0  0  0  0  0  0  0  0  0  0  0  0
    7.7902   13.2335   22.3994 O   0  0  0  0  0  0  0  0  0  0  0  0
    9.8790   14.4292   22.4210 C   0  0  0  0  0  0  0  0  0  0  0  0
   10.5571   15.2197   23.3091 F   0  0  0  0  0  0  0  0  0  0  0  0
    9.4709   15.2580   21.4233 F   0  0  0  0  0  0  0  0  0  0  0  0
    8.0027   12.3634   25.1123 C   0  0  0  0  0  0  0  0  0  0  0  0
    8.3143   11.0843   24.6601 C   0  0  0  0  0  0  0  0  0  0  0  0
    7.5992   10.0049   25.1625 C   0  0  0  0  0  0  0  0  0  0  0  0
    6.5884   10.2069   26.0904 C   0  0  0  0  0  0  0  0  0  0  0  0
    6.3468   11.5000   26.5025 C   0  0  0  0  0  0  0  0  0  0  0  0
    7.0443   12.5669   26.0597 N   0  0  0  0  0  0  0  0  0  0  0  0
  2  1  1  1
  2  3  1  0
  2  4  1  0
  4  5  2  0
  4  6  1  0
  6  7  1  0
  6  8  1  0
  2  9  1  0
  9 10  2  0
 10 11  1  0
 11 12  2  0
 12 13  1  0
 13 14  2  0
 14  9  1  0
M  END
>  <inchikey>  (251) 
ULOXUOOKQMHPDW-UHFFFAOYSA-N

>  <energy_score>  (251) 
-18.439908

>  <subsites>  (251) 
1 - Active Site

>  <alias>  (251) 
C15051-P213

>  <tags>  (251) 
openbind_a71ev2a_c1_scaffolds,BulkDock Fragalysis export,openbind_a71ev2a_c1_knitwork_impure,fragmenstein_placed

>  <distance_score>  (251) 
0.591759

>  <placement_batch>  (251) 
openbind_a71ev2a_c1_knitwork_impure

>  <name>  (251) 
C15051-P213

>  <ref_mols>  (251) 
A0719a,A3548a

>  <smiles>  (251) 
C[C@](O)(C(=O)C(F)F)c1ccccn1

>  <HIPPO Compound ID>  (251) 
31914

>  <HIPPO Pose ID>  (251) 
387901

>  <ref_pdb>  (251) 
A3564a

$$$$
C15066-P213
     RDKit          3D

 15 15  0  0  0  0  0  0  0  0999 V2000
   12.1029   16.0497   21.5921 C   0  0  0  0  0  0  0  0  0  0  0  0
   12.0158   15.0250   22.7083 C   0  0  0  0  0  0  0  0  0  0  0  0
   10.6622   14.9311   23.4160 C   0  0  0  0  0  0  0  0  0  0  0  0
    9.4841   14.6219   22.4869 C   0  0  2  0  0  0  0  0  0  0  0  0
    8.8219   15.8795   21.9364 C   0  0  0  0  0  0  0  0  0  0  0  0
    8.3684   13.7519   23.0665 C   0  0  0  0  0  0  0  0  0  0  0  0
    7.6730   13.0871   22.2828 O   0  0  0  0  0  0  0  0  0  0  0  0
    7.9623   13.8290   24.5550 C   0  0  2  0  0  0  0  0  0  0  0  0
    8.8044   14.4536   25.4943 O   0  0  0  0  0  0  0  0  0  0  0  0
    7.5833   12.4827   25.1299 C   0  0  0  0  0  0  0  0  0  0  0  0
    8.1454   11.2735   24.7155 C   0  0  0  0  0  0  0  0  0  0  0  0
    7.6507   10.0800   25.2266 C   0  0  0  0  0  0  0  0  0  0  0  0
    6.6402   10.1279   26.1723 C   0  0  0  0  0  0  0  0  0  0  0  0
    6.1263   11.2723   26.6592 N   0  0  0  0  0  0  0  0  0  0  0  0
    6.5975   12.4167   26.1142 C   0  0  0  0  0  0  0  0  0  0  0  0
  1  2  1  0
  2  3  1  0
  3  4  1  0
  4  5  1  1
  4  6  1  0
  6  7  2  0
  6  8  1  0
  8  9  1  1
  8 10  1  0
 10 11  2  0
 11 12  1  0
 12 13  2  0
 13 14  1  0
 14 15  2  0
 15 10  1  0
M  END
>  <inchikey>  (252) 
ZTMHRCWTNSPQGN-UHFFFAOYSA-N

>  <energy_score>  (252) 
-18.686161

>  <subsites>  (252) 
1 - Active Site

>  <alias>  (252) 
C15066-P213

>  <tags>  (252) 
openbind_a71ev2a_c1_scaffolds,BulkDock Fragalysis export,openbind_a71ev2a_c1_knitwork_impure,fragmenstein_placed

>  <distance_score>  (252) 
0.962446

>  <placement_batch>  (252) 
openbind_a71ev2a_c1_knitwork_impure

>  <name>  (252) 
C15066-P213

>  <ref_mols>  (252) 
A0719a,A3548a

>  <smiles>  (252) 
CCC[C@H](C)C(=O)[C@H](O)c1cccnc1

>  <HIPPO Compound ID>  (252) 
33243

>  <HIPPO Pose ID>  (252) 
387912

>  <ref_pdb>  (252) 
A3564a

$$$$
C15070-P213
     RDKit          3D

 15 15  0  0  0  0  0  0  0  0999 V2000
   11.9896   15.8131   21.3907 C   0  0  0  0  0  0  0  0  0  0  0  0
   12.0529   14.9457   22.6442 C   0  0  0  0  0  0  0  0  0  0  0  0
   10.7513   14.8560   23.4588 C   0  0  1  0  0  0  0  0  0  0  0  0
   10.2337   16.2426   23.7766 C   0  0  0  0  0  0  0  0  0  0  0  0
    9.7239   13.9738   22.7401 C   0  0  0  0  0  0  0  0  0  0  0  0
    8.3211   13.9144   23.3417 C   0  0  1  0  0  0  0  0  0  0  0  0
    7.5497   13.0332   22.5308 O   0  0  0  0  0  0  0  0  0  0  0  0
    8.2987   13.5518   24.8341 C   0  0  0  0  0  0  0  0  0  0  0  0
    8.7339   14.2832   25.7201 O   0  0  0  0  0  0  0  0  0  0  0  0
    7.6706   12.3006   25.2657 C   0  0  0  0  0  0  0  0  0  0  0  0
    8.1221   11.0563   24.8455 C   0  0  0  0  0  0  0  0  0  0  0  0
    7.4699    9.9291   25.3249 C   0  0  0  0  0  0  0  0  0  0  0  0
    6.4278   10.0815   26.2289 C   0  0  0  0  0  0  0  0  0  0  0  0
    6.0085   11.2763   26.6885 N   0  0  0  0  0  0  0  0  0  0  0  0
    6.6331   12.3667   26.1857 C   0  0  0  0  0  0  0  0  0  0  0  0
  1  2  1  0
  2  3  1  0
  3  4  1  6
  3  5  1  0
  5  6  1  0
  6  7  1  6
  6  8  1  0
  8  9  2  0
  8 10  1  0
 10 11  2  0
 11 12  1  0
 12 13  2  0
 13 14  1  0
 14 15  2  0
 15 10  1  0
M  END
>  <inchikey>  (253) 
GHIFOCYQWCGZBT-UHFFFAOYSA-N

>  <energy_score>  (253) 
-28.880214

>  <subsites>  (253) 
1 - Active Site

>  <alias>  (253) 
C15070-P213

>  <tags>  (253) 
openbind_a71ev2a_c1_scaffolds,BulkDock Fragalysis export,openbind_a71ev2a_c1_knitwork_impure,fragmenstein_placed

>  <distance_score>  (253) 
0.79456

>  <placement_batch>  (253) 
openbind_a71ev2a_c1_knitwork_impure

>  <name>  (253) 
C15070-P213

>  <ref_mols>  (253) 
A0719a,A3548a

>  <smiles>  (253) 
CC[C@@H](C)C[C@@H](O)C(=O)c1cccnc1

>  <HIPPO Compound ID>  (253) 
765

>  <HIPPO Pose ID>  (253) 
387915

>  <ref_pdb>  (253) 
A3564a

$$$$
C8141-P213
     RDKit          3D

 14 14  0  0  0  0  0  0  0  0999 V2000
   11.9934   15.6241   22.4749 C   0  0  0  0  0  0  0  0  0  0  0  0
   10.7489   15.1373   23.1378 C   0  0  0  0  0  0  0  0  0  0  0  0
    9.8898   14.3131   22.5226 C   0  0  0  0  0  0  0  0  0  0  0  0
    8.6322   13.7558   23.0935 C   0  0  0  0  0  0  0  0  0  0  0  0
    7.8049   13.2977   22.2987 O   0  0  0  0  0  0  0  0  0  0  0  0
    8.3831   13.7477   24.6323 C   0  0  2  0  0  0  0  0  0  0  0  0
    7.7139   15.0847   24.9633 C   0  0  0  0  0  0  0  0  0  0  0  0
    9.5680   13.6729   25.4223 O   0  0  0  0  0  0  0  0  0  0  0  0
    7.4473   12.5481   24.9849 C   0  0  0  0  0  0  0  0  0  0  0  0
    8.1803   11.2027   24.8957 C   0  0  0  0  0  0  0  0  0  0  0  0
    7.3260   10.0285   25.3374 C   0  0  0  0  0  0  0  0  0  0  0  0
    6.7537   10.2210   26.6635 N   0  0  0  0  0  0  0  0  0  0  0  0
    5.9347   11.4265   26.7097 C   0  0  0  0  0  0  0  0  0  0  0  0
    6.7204   12.6793   26.3355 C   0  0  0  0  0  0  0  0  0  0  0  0
  1  2  1  0
  2  3  2  3
  3  4  1  0
  4  5  2  0
  4  6  1  0
  6  7  1  1
  6  8  1  0
  6  9  1  0
  9 10  1  0
 10 11  1  0
 11 12  1  0
 12 13  1  0
 13 14  1  0
 14  9  1  0
M  END
>  <inchikey>  (254) 
NUWLOKGYWJWIQU-UHFFFAOYSA-N

>  <energy_score>  (254) 
-29.516921

>  <subsites>  (254) 
1 - Active Site

>  <alias>  (254) 
C8141-P213

>  <tags>  (254) 
openbind_a71ev2a_c1_scaffolds,BulkDock Fragalysis export,openbind_a71ev2a_c1_knitwork_impure,fragmenstein_placed

>  <distance_score>  (254) 
0.908464

>  <placement_batch>  (254) 
openbind_a71ev2a_c1_knitwork_impure

>  <name>  (254) 
C8141-P213

>  <ref_mols>  (254) 
A0719a,A3548a

>  <smiles>  (254) 
CC=CC(=O)[C@](C)(O)C1CCNCC1

>  <HIPPO Compound ID>  (254) 
6116

>  <HIPPO Pose ID>  (254) 
387925

>  <ref_pdb>  (254) 
A3564a

$$$$
C8152-P213
     RDKit          3D

 14 14  0  0  0  0  0  0  0  0999 V2000
    9.7365    9.1174   23.3705 C   0  0  0  0  0  0  0  0  0  0  0  0
    9.7129   10.6221   23.2555 C   0  0  0  0  0  0  0  0  0  0  0  0
    8.3877   11.0776   23.5533 O   0  0  0  0  0  0  0  0  0  0  0  0
    8.2401   11.8742   24.6428 C   0  0  0  0  0  0  0  0  0  0  0  0
    7.5672   11.5048   25.6001 O   0  0  0  0  0  0  0  0  0  0  0  0
    8.9888   13.2185   24.5729 C   0  0  2  0  0  0  0  0  0  0  0  0
    8.4118   14.1863   25.4614 O   0  0  0  0  0  0  0  0  0  0  0  0
    9.0305   13.8023   23.1406 C   0  0  0  0  0  0  0  0  0  0  0  0
    9.3998   15.2330   23.1158 N   0  0  0  0  0  0  0  0  0  0  0  0
   10.7415   15.5218   23.6496 C   0  0  0  0  0  0  0  0  0  0  0  0
   11.8907   15.0931   22.7410 C   0  0  0  0  0  0  0  0  0  0  0  0
   11.7512   15.7217   21.3613 C   0  0  0  0  0  0  0  0  0  0  0  0
   10.3752   15.4207   20.7844 C   0  0  0  0  0  0  0  0  0  0  0  0
    9.2609   15.8076   21.7599 C   0  0  0  0  0  0  0  0  0  0  0  0
  1  2  1  0
  2  3  1  0
  3  4  1  0
  4  5  2  0
  4  6  1  0
  6  7  1  1
  6  8  1  0
  8  9  1  0
  9 10  1  0
 10 11  1  0
 11 12  1  0
 12 13  1  0
 13 14  1  0
 14  9  1  0
M  END
>  <inchikey>  (255) 
VABKMYCWOFANPU-UHFFFAOYSA-N

>  <energy_score>  (255) 
-15.724081

>  <subsites>  (255) 
1 - Active Site

>  <alias>  (255) 
C8152-P213

>  <tags>  (255) 
openbind_a71ev2a_c1_scaffolds,BulkDock Fragalysis export,openbind_a71ev2a_c1_knitwork_impure,fragmenstein_placed

>  <distance_score>  (255) 
0.90651

>  <placement_batch>  (255) 
openbind_a71ev2a_c1_knitwork_impure

>  <name>  (255) 
C8152-P213

>  <ref_mols>  (255) 
A0719a,A3548a

>  <smiles>  (255) 
CCOC(=O)[C@H](O)CN1CCCCC1

>  <HIPPO Compound ID>  (255) 
10419

>  <HIPPO Pose ID>  (255) 
387933

>  <ref_pdb>  (255) 
A3564a

$$$$
C8163-P213
     RDKit          3D

 15 15  0  0  0  0  0  0  0  0999 V2000
   11.4213   15.6733   20.2523 C   0  0  0  0  0  0  0  0  0  0  0  0
   11.6769   15.3978   21.3920 C   0  0  0  0  0  0  0  0  0  0  0  0
   11.9313   14.9501   22.7676 C   0  0  0  0  0  0  0  0  0  0  0  0
   10.7763   15.2885   23.7044 C   0  0  0  0  0  0  0  0  0  0  0  0
    9.4859   14.8229   23.1844 N   0  0  0  0  0  0  0  0  0  0  0  0
    8.9421   13.2723   23.4692 S   0  0  0  0  0  0  0  0  0  0  0  0
    7.9045   13.0519   22.4853 O   0  0  0  0  0  0  0  0  0  0  0  0
   10.0676   12.3797   23.6300 O   0  0  0  0  0  0  0  0  0  0  0  0
    8.1584   13.4743   25.0545 C   0  0  0  0  0  0  0  0  0  0  0  0
    7.1576   12.3599   25.3388 C   0  0  1  0  0  0  0  0  0  0  0  0
    7.7786   10.9663   25.3065 C   0  0  0  0  0  0  0  0  0  0  0  0
    6.7943    9.8950   25.7273 C   0  0  0  0  0  0  0  0  0  0  0  0
    5.9830   10.2386   26.9650 C   0  0  0  0  0  0  0  0  0  0  0  0
    5.4138   11.5781   26.9110 N   0  0  0  0  0  0  0  0  0  0  0  0
    6.4171   12.6061   26.6530 C   0  0  0  0  0  0  0  0  0  0  0  0
  1  2  3  0
  2  3  1  0
  3  4  1  0
  4  5  1  0
  5  6  1  0
  6  7  2  0
  6  8  2  0
  6  9  1  0
 10  9  1  1
 10 11  1  0
 11 12  1  0
 12 13  1  0
 13 14  1  0
 14 15  1  0
 15 10  1  0
M  END
>  <inchikey>  (256) 
RTIJVGZLLDAVEL-UHFFFAOYSA-N

>  <energy_score>  (256) 
-37.163488

>  <subsites>  (256) 
1 - Active Site

>  <alias>  (256) 
C8163-P213

>  <tags>  (256) 
openbind_a71ev2a_c1_scaffolds,BulkDock Fragalysis export,openbind_a71ev2a_c1_knitwork_impure,fragmenstein_placed

>  <distance_score>  (256) 
0.999081

>  <placement_batch>  (256) 
openbind_a71ev2a_c1_knitwork_impure

>  <name>  (256) 
C8163-P213

>  <ref_mols>  (256) 
A0719a,A3548a

>  <smiles>  (256) 
C#CCCNS(=O)(=O)C[C@H]1CCCNC1

>  <HIPPO Compound ID>  (256) 
5954

>  <HIPPO Pose ID>  (256) 
387941

>  <ref_pdb>  (256) 
A3564a

$$$$
C8173-P213
     RDKit          3D

 17 17  0  0  0  0  0  0  0  0999 V2000
    7.5519   13.2996   22.2318 O   0  0  0  0  0  0  0  0  0  0  0  0
    8.3470   13.9034   22.8392 C   0  0  0  0  0  0  0  0  0  0  0  0
    9.3236   15.0313   22.3834 N   0  0  0  0  0  0  0  0  0  0  0  0
    9.5813   15.5724   21.0717 C   0  0  0  0  0  0  0  0  0  0  0  0
   11.0219   15.2796   20.6880 C   0  0  0  0  0  0  0  0  0  0  0  0
   11.2761   15.5480   19.2305 C   0  0  0  0  0  0  0  0  0  0  0  0
   10.6290   14.6931   18.4262 F   0  0  0  0  0  0  0  0  0  0  0  0
   10.9044   16.7997   18.9027 F   0  0  0  0  0  0  0  0  0  0  0  0
   12.5910   15.4158   18.9582 F   0  0  0  0  0  0  0  0  0  0  0  0
    8.7288   13.6569   24.3062 C   0  0  1  0  0  0  0  0  0  0  0  0
    8.6137   14.7996   25.0503 F   0  0  0  0  0  0  0  0  0  0  0  0
    8.0804   12.5177   25.0759 C   0  0  0  0  0  0  0  0  0  0  0  0
    8.1193   11.1617   24.3924 C   0  0  0  0  0  0  0  0  0  0  0  0
    7.5531   10.0841   25.3044 C   0  0  0  0  0  0  0  0  0  0  0  0
    6.2381   10.3794   25.8426 N   0  0  0  0  0  0  0  0  0  0  0  0
    6.1578   11.6851   26.4860 C   0  0  0  0  0  0  0  0  0  0  0  0
    6.6930   12.8349   25.6258 C   0  0  0  0  0  0  0  0  0  0  0  0
  1  2  2  0
  2  3  1  0
  3  4  1  0
  4  5  1  0
  5  6  1  0
  6  7  1  0
  6  8  1  0
  6  9  1  0
  2 10  1  0
 10 11  1  1
 10 12  1  0
 12 13  1  0
 13 14  1  0
 14 15  1  0
 15 16  1  0
 16 17  1  0
 17 12  1  0
M  END
>  <inchikey>  (257) 
NRPARTHTHRTTMK-UHFFFAOYSA-N

>  <energy_score>  (257) 
-6.262598

>  <subsites>  (257) 
1 - Active Site

>  <alias>  (257) 
C8173-P213

>  <tags>  (257) 
openbind_a71ev2a_c1_scaffolds,BulkDock Fragalysis export,openbind_a71ev2a_c1_knitwork_impure,fragmenstein_placed

>  <distance_score>  (257) 
0.919924

>  <placement_batch>  (257) 
openbind_a71ev2a_c1_knitwork_impure

>  <name>  (257) 
C8173-P213

>  <ref_mols>  (257) 
A0719a,A3548a

>  <smiles>  (257) 
O=C(NCCC(F)(F)F)[C@@H](F)C1CCNCC1

>  <HIPPO Compound ID>  (257) 
4666

>  <HIPPO Pose ID>  (257) 
387948

>  <ref_pdb>  (257) 
A3564a

$$$$
C7489-P197
     RDKit          3D

 12 12  0  0  0  0  0  0  0  0999 V2000
    4.8442   12.5499   28.5005 C   0  0  0  0  0  0  0  0  0  0  0  0
    4.4911   11.3063   27.6981 C   0  0  0  0  0  0  0  0  0  0  0  0
    3.5423   10.4040   28.4805 C   0  0  0  0  0  0  0  0  0  0  0  0
    5.8078   10.5950   27.4145 C   0  0  0  0  0  0  0  0  0  0  0  0
    6.2679    9.8170   28.1526 O   0  0  0  0  0  0  0  0  0  0  0  0
    6.3734   11.1864   26.0966 N   0  0  0  0  0  0  0  0  0  0  0  0
    7.6595   11.0123   25.4687 C   0  0  0  0  0  0  0  0  0  0  0  0
    7.7690    9.6671   24.7827 C   0  0  0  0  0  0  0  0  0  0  0  0
    9.0311    9.5018   23.9515 C   0  0  0  0  0  0  0  0  0  0  0  0
    9.4034   10.6835   23.1924 N   0  0  0  0  0  0  0  0  0  0  0  0
    9.3780   11.9374   23.9249 C   0  0  0  0  0  0  0  0  0  0  0  0
    8.0187   12.1754   24.5620 C   0  0  0  0  0  0  0  0  0  0  0  0
  1  2  1  0
  2  3  1  0
  2  4  1  0
  4  5  2  0
  4  6  1  0
  6  7  1  0
  7  8  1  0
  8  9  1  0
  9 10  1  0
 10 11  1  0
 11 12  1  0
 12  7  1  0
M  END
>  <inchikey>  (258) 
FCRUNMPWXPNPMG-UHFFFAOYSA-N

>  <energy_score>  (258) 
-10.38387

>  <subsites>  (258) 
1 - Active Site

>  <alias>  (258) 
C7489-P197

>  <tags>  (258) 
openbind_a71ev2a_c1_scaffolds,BulkDock Fragalysis export,openbind_a71ev2a_c1_knitwork_impure,fragmenstein_placed

>  <distance_score>  (258) 
0.963382

>  <placement_batch>  (258) 
openbind_a71ev2a_c1_knitwork_impure

>  <name>  (258) 
C7489-P197

>  <ref_mols>  (258) 
A1445a,A3616b

>  <smiles>  (258) 
CC(C)C(=O)NC1CCNCC1

>  <HIPPO Compound ID>  (258) 
4928

>  <HIPPO Pose ID>  (258) 
387981

>  <ref_pdb>  (258) 
A3564a

$$$$
C7500-P197
     RDKit          3D

 14 14  0  0  0  0  0  0  0  0999 V2000
    1.8324    9.9563   29.5212 C   0  0  0  0  0  0  0  0  0  0  0  0
    3.1636   10.6788   29.4814 C   0  0  0  0  0  0  0  0  0  0  0  0
    3.8213   10.3584   28.2559 O   0  0  0  0  0  0  0  0  0  0  0  0
    4.8466   11.2772   27.8197 C   0  0  0  0  0  0  0  0  0  0  0  0
    5.8190   11.6486   28.9506 C   0  0  0  0  0  0  0  0  0  0  0  0
    4.1604   12.5487   27.2810 C   0  0  0  0  0  0  0  0  0  0  0  0
    5.6711   10.5467   26.7091 C   0  0  0  0  0  0  0  0  0  0  0  0
    6.3944   11.4848   25.8551 N   0  0  0  0  0  0  0  0  0  0  0  0
    7.7113   11.0836   25.3712 C   0  0  0  0  0  0  0  0  0  0  0  0
    7.7864    9.7100   24.7286 C   0  0  0  0  0  0  0  0  0  0  0  0
    9.0639    9.4545   23.9398 C   0  0  0  0  0  0  0  0  0  0  0  0
    9.5033   10.5789   23.1354 N   0  0  0  0  0  0  0  0  0  0  0  0
    9.5515   11.8531   23.8303 C   0  0  0  0  0  0  0  0  0  0  0  0
    8.2062   12.1935   24.4433 C   0  0  0  0  0  0  0  0  0  0  0  0
  1  2  1  0
  2  3  1  0
  3  4  1  0
  4  5  1  0
  4  6  1  0
  4  7  1  0
  7  8  1  0
  8  9  1  0
  9 10  1  0
 10 11  1  0
 11 12  1  0
 12 13  1  0
 13 14  1  0
 14  9  1  0
M  END
>  <inchikey>  (259) 
GCDRJSAGWFOAHE-UHFFFAOYSA-N

>  <energy_score>  (259) 
-40.583439

>  <subsites>  (259) 
1 - Active Site

>  <alias>  (259) 
C7500-P197

>  <tags>  (259) 
openbind_a71ev2a_c1_scaffolds,BulkDock Fragalysis export,openbind_a71ev2a_c1_knitwork_impure,fragmenstein_placed

>  <distance_score>  (259) 
0.786767

>  <placement_batch>  (259) 
openbind_a71ev2a_c1_knitwork_impure

>  <name>  (259) 
C7500-P197

>  <ref_mols>  (259) 
A1445a,A3616b

>  <smiles>  (259) 
CCOC(C)(C)CNC1CCNCC1

>  <HIPPO Compound ID>  (259) 
5393

>  <HIPPO Pose ID>  (259) 
387985

>  <ref_pdb>  (259) 
A3564a

$$$$
C18925-P134
     RDKit          3D

 13 14  0  0  0  0  0  0  0  0999 V2000
    7.2990   13.5420   22.2837 O   0  0  0  0  0  0  0  0  0  0  0  0
    7.5760   13.3772   23.4656 C   0  0  0  0  0  0  0  0  0  0  0  0
    8.9500   13.0295   23.8360 C   0  0  0  0  0  0  0  0  0  0  0  0
    9.9977   13.8097   23.3020 C   0  0  0  0  0  0  0  0  0  0  0  0
   11.3222   13.5145   23.6123 C   0  0  0  0  0  0  0  0  0  0  0  0
   11.5372   12.4309   24.4367 C   0  0  0  0  0  0  0  0  0  0  0  0
   10.5068   11.6096   24.9031 C   0  0  0  0  0  0  0  0  0  0  0  0
    9.1868   11.9044   24.6399 C   0  0  0  0  0  0  0  0  0  0  0  0
   11.0153   10.4860   25.5557 N   0  0  0  0  0  0  0  0  0  0  0  0
   12.3939   10.4909   25.5364 C   0  0  0  0  0  0  0  0  0  0  0  0
   13.1723    9.6278   25.8824 O   0  0  0  0  0  0  0  0  0  0  0  0
   12.7941   11.8171   24.8616 C   0  0  0  0  0  0  0  0  0  0  0  0
   13.9249   12.1710   24.6266 O   0  0  0  0  0  0  0  0  0  0  0  0
  1  2  2  0
  2  3  1  0
  3  4  2  0
  4  5  1  0
  5  6  2  0
  6  7  1  0
  7  8  2  0
  7  9  1  0
  9 10  1  0
 10 11  2  0
 10 12  1  0
 12 13  2  0
  8  3  1  0
 12  6  1  0
M  END
>  <inchikey>  (260) 
BPAGEGOWFQURHS-UHFFFAOYSA-N

>  <energy_score>  (260) 
-7.990913

>  <subsites>  (260) 
1 - Active Site

>  <alias>  (260) 
C18925-P134

>  <tags>  (260) 
openbind_a71ev2a_c1_scaffolds,BulkDock Fragalysis export,openbind_a71ev2a_c1_knitwork_impure,fragmenstein_placed

>  <distance_score>  (260) 
0.716793

>  <placement_batch>  (260) 
openbind_a71ev2a_c1_knitwork_impure

>  <name>  (260) 
C18925-P134

>  <ref_mols>  (260) 
A4586a,A2513a

>  <smiles>  (260) 
O=Cc1ccc2c(c1)NC(=O)C2=O

>  <HIPPO Compound ID>  (260) 
5359

>  <HIPPO Pose ID>  (260) 
388423

>  <ref_pdb>  (260) 
A3564a

$$$$
C24522-P77
     RDKit          3D

 13 13  0  0  0  0  0  0  0  0999 V2000
    9.6766   13.8161   21.5107 C   0  0  0  0  0  0  0  0  0  0  0  0
   10.0621   15.0742   22.2260 C   0  0  0  0  0  0  0  0  0  0  0  0
   11.5785   15.2624   22.0100 C   0  0  0  0  0  0  0  0  0  0  0  0
    9.3490   16.2113   21.4768 C   0  0  0  0  0  0  0  0  0  0  0  0
    9.7839   14.8138   23.7355 C   0  0  0  0  0  0  0  0  0  0  0  0
   10.7285   14.8046   24.5519 O   0  0  0  0  0  0  0  0  0  0  0  0
    8.3828   14.4231   24.3183 C   0  0  2  0  0  0  0  0  0  0  0  0
    7.1634   15.1923   23.8232 C   0  0  0  0  0  0  0  0  0  0  0  0
    8.4637   14.7204   25.7415 O   0  0  0  0  0  0  0  0  0  0  0  0
    8.0690   12.9224   24.1714 C   0  0  2  0  0  0  0  0  0  0  0  0
    7.2836   12.2029   25.2990 C   0  0  0  0  0  0  0  0  0  0  0  0
    8.2079   11.0242   24.9920 C   0  0  0  0  0  0  0  0  0  0  0  0
    9.1942   11.9840   24.4485 N   0  0  0  0  0  0  0  0  0  0  0  0
  1  2  1  0
  2  3  1  0
  2  4  1  0
  2  5  1  0
  5  6  2  0
  5  7  1  0
  7  8  1  6
  7  9  1  0
  7 10  1  0
 10 11  1  1
 11 12  1  0
 12 13  1  0
 13 10  1  0
M  END
>  <inchikey>  (261) 
OLHKVAHFSOVKNO-UHFFFAOYSA-N

>  <energy_score>  (261) 
-23.672108

>  <subsites>  (261) 
1 - Active Site

>  <alias>  (261) 
C24522-P77

>  <tags>  (261) 
openbind_a71ev2a_c1_scaffolds,BulkDock Fragalysis export,openbind_a71ev2a_c1_knitwork_impure,fragmenstein_placed

>  <distance_score>  (261) 
0.962537

>  <placement_batch>  (261) 
openbind_a71ev2a_c1_knitwork_impure

>  <name>  (261) 
C24522-P77

>  <ref_mols>  (261) 
A0719a,A4994a

>  <smiles>  (261) 
CC(C)(C)C(=O)[C@](C)(O)[C@@H]1CCN1

>  <HIPPO Compound ID>  (261) 
2382

>  <HIPPO Pose ID>  (261) 
388893

>  <ref_pdb>  (261) 
A3564a

$$$$
C495-P374
     RDKit          3D

 22 24  0  0  0  0  0  0  0  0999 V2000
   24.5592   19.9218   21.7279 C   0  0  0  0  0  0  0  0  0  0  0  0
   25.6575   20.6028   20.9644 C   0  0  0  0  0  0  0  0  0  0  0  0
   26.9925   20.3055   21.2814 C   0  0  0  0  0  0  0  0  0  0  0  0
   28.0505   20.8981   20.5943 C   0  0  0  0  0  0  0  0  0  0  0  0
   27.8316   21.7984   19.5627 C   0  0  0  0  0  0  0  0  0  0  0  0
   26.5066   22.0939   19.2411 C   0  0  0  0  0  0  0  0  0  0  0  0
   25.9277   23.1525   18.0203 S   0  0  0  0  0  0  0  0  0  0  0  0
   24.3423   22.7951   18.4877 C   0  0  0  0  0  0  0  0  0  0  0  0
   23.3010   23.3800   17.8559 N   0  0  0  0  0  0  0  0  0  0  0  0
   23.2766   24.4355   16.7146 C   0  0  0  0  0  0  0  0  0  0  0  0
   24.1511   25.0156   16.2013 O   0  0  0  0  0  0  0  0  0  0  0  0
   21.8135   24.6236   16.3667 C   0  0  0  0  0  0  0  0  0  0  0  0
   21.6527   25.1664   14.9579 C   0  0  0  0  0  0  0  0  0  0  0  0
   20.3221   24.8493   14.5369 O   0  0  0  0  0  0  0  0  0  0  0  0
   20.0289   25.3051   13.2068 C   0  0  0  0  0  0  0  0  0  0  0  0
   20.8599   24.5716   12.1409 C   0  0  0  0  0  0  0  0  0  0  0  0
   20.0872   24.3268   10.8458 C   0  0  0  0  0  0  0  0  0  0  0  0
   19.1890   25.4390   10.5583 N   0  0  0  0  0  0  0  0  0  0  0  0
   18.1358   25.5732   11.5667 C   0  0  0  0  0  0  0  0  0  0  0  0
   18.5390   25.0878   12.9591 C   0  0  0  0  0  0  0  0  0  0  0  0
   24.1748   21.9386   19.4628 N   0  0  0  0  0  0  0  0  0  0  0  0
   25.4211   21.5250   19.9159 C   0  0  0  0  0  0  0  0  0  0  0  0
  1  2  1  0
  2  3  2  0
  3  4  1  0
  4  5  2  0
  5  6  1  0
  6  7  1  0
  7  8  1  0
  8  9  1  0
  9 10  1  0
 10 11  2  0
 10 12  1  0
 12 13  1  0
 13 14  1  0
 14 15  1  0
 15 16  1  0
 16 17  1  0
 17 18  1  0
 18 19  1  0
 19 20  1  0
  8 21  2  0
 21 22  1  0
 22  2  1  0
 22  6  2  0
 20 15  1  0
M  END
>  <inchikey>  (262) 
RAHVMMANICHALQ-UHFFFAOYSA-N

>  <energy_score>  (262) 
-63.455682

>  <subsites>  (262) 
1 - Active Site,5 - A3181/A/202/1

>  <alias>  (262) 
C495-P374

>  <tags>  (262) 
openbind_a71ev2a_c1_scaffolds,BulkDock Fragalysis export,openbind_a71ev2a_c1_knitwork_impure,fragmenstein_placed

>  <distance_score>  (262) 
0.866457

>  <placement_batch>  (262) 
openbind_a71ev2a_c1_knitwork_impure

>  <name>  (262) 
C495-P374

>  <ref_mols>  (262) 
A0514b,A4463a

>  <smiles>  (262) 
Cc1cccc2sc(NC(=O)CCOC3CCNCC3)nc12

>  <HIPPO Compound ID>  (262) 
14605

>  <HIPPO Pose ID>  (262) 
389241

>  <ref_pdb>  (262) 
A3564a

$$$$
C7587-P191
     RDKit          3D

 12 12  0  0  0  0  0  0  0  0999 V2000
   12.3306   16.2045   22.8801 C   0  0  0  0  0  0  0  0  0  0  0  0
   10.8203   16.3724   22.9048 C   0  0  0  0  0  0  0  0  0  0  0  0
   10.0861   15.1233   22.4422 C   0  0  0  0  0  0  0  0  0  0  0  0
    9.7954   13.9762   23.7737 S   0  0  0  0  0  0  0  0  0  0  0  0
   11.0318   13.6824   24.4640 O   0  0  0  0  0  0  0  0  0  0  0  0
    8.6136   14.3549   24.5166 O   0  0  0  0  0  0  0  0  0  0  0  0
    9.3796   12.5689   22.9140 N   0  0  0  0  0  0  0  0  0  0  0  0
    9.0443   11.4775   23.8517 C   0  0  2  0  0  0  0  0  0  0  0  0
    9.3823   10.1021   23.3201 C   0  0  0  0  0  0  0  0  0  0  0  0
    8.2868    9.2030   23.8569 C   0  0  0  0  0  0  0  0  0  0  0  0
    7.4750   10.0148   24.7648 N   0  0  0  0  0  0  0  0  0  0  0  0
    7.5994   11.3995   24.2940 C   0  0  0  0  0  0  0  0  0  0  0  0
  1  2  1  0
  2  3  1  0
  3  4  1  0
  4  5  2  0
  4  6  2  0
  4  7  1  0
  8  7  1  6
  8  9  1  0
  9 10  1  0
 10 11  1  0
 11 12  1  0
 12  8  1  0
M  END
>  <inchikey>  (263) 
ZGUIGBFPAXLLGR-UHFFFAOYSA-N

>  <energy_score>  (263) 
-29.548778

>  <subsites>  (263) 
1 - Active Site

>  <alias>  (263) 
C7587-P191

>  <tags>  (263) 
openbind_a71ev2a_c1_scaffolds,BulkDock Fragalysis export,openbind_a71ev2a_c1_knitwork_impure,fragmenstein_placed

>  <distance_score>  (263) 
0.781731

>  <placement_batch>  (263) 
openbind_a71ev2a_c1_knitwork_impure

>  <name>  (263) 
C7587-P191

>  <ref_mols>  (263) 
A0719a,A3509b

>  <smiles>  (263) 
CCCS(=O)(=O)N[C@@H]1CCNC1

>  <HIPPO Compound ID>  (263) 
2063

>  <HIPPO Pose ID>  (263) 
389740

>  <ref_pdb>  (263) 
A3564a

$$$$
C7597-P191
     RDKit          3D

 11 11  0  0  0  0  0  0  0  0999 V2000
   12.2294   16.2257   23.0819 C   0  0  0  0  0  0  0  0  0  0  0  0
   10.7096   16.1667   23.0869 C   0  0  0  0  0  0  0  0  0  0  0  0
   10.1789   14.7996   22.6772 C   0  0  0  0  0  0  0  0  0  0  0  0
    9.9778   13.6948   24.0681 S   0  0  0  0  0  0  0  0  0  0  0  0
   11.2003   13.6512   24.8345 O   0  0  0  0  0  0  0  0  0  0  0  0
    8.7042   13.9482   24.7061 O   0  0  0  0  0  0  0  0  0  0  0  0
    9.8565   12.2254   23.3052 N   0  0  0  0  0  0  0  0  0  0  0  0
    8.7397   11.2605   23.4124 C   0  0  0  0  0  0  0  0  0  0  0  0
    9.0940    9.7656   23.5335 C   0  0  0  0  0  0  0  0  0  0  0  0
    7.9578    9.5916   24.4602 N   0  0  0  0  0  0  0  0  0  0  0  0
    7.9421   11.0503   24.7048 C   0  0  0  0  0  0  0  0  0  0  0  0
  1  2  1  0
  2  3  1  0
  3  4  1  0
  4  5  2  0
  4  6  2  0
  4  7  1  0
  7  8  1  0
  8  9  1  0
  9 10  1  0
 10 11  1  0
 11  8  1  0
M  END
>  <inchikey>  (264) 
VIDKADKMWCUVEQ-UHFFFAOYSA-N

>  <energy_score>  (264) 
-30.820731

>  <subsites>  (264) 
1 - Active Site

>  <alias>  (264) 
C7597-P191

>  <tags>  (264) 
openbind_a71ev2a_c1_scaffolds,BulkDock Fragalysis export,openbind_a71ev2a_c1_knitwork_impure,fragmenstein_placed

>  <distance_score>  (264) 
0.940803

>  <placement_batch>  (264) 
openbind_a71ev2a_c1_knitwork_impure

>  <name>  (264) 
C7597-P191

>  <ref_mols>  (264) 
A0719a,A3509b

>  <smiles>  (264) 
CCCS(=O)(=O)NC1CNC1

>  <HIPPO Compound ID>  (264) 
9825

>  <HIPPO Pose ID>  (264) 
389748

>  <ref_pdb>  (264) 
A3564a

$$$$
C7633-P191
     RDKit          3D

 13 13  0  0  0  0  0  0  0  0999 V2000
    7.7722   15.2375   26.4662 C   0  0  0  0  0  0  0  0  0  0  0  0
    8.3357   15.0046   25.0683 C   0  0  0  0  0  0  0  0  0  0  0  0
    7.5321   13.9301   24.3259 C   0  0  2  0  0  0  0  0  0  0  0  0
    8.1587   12.5007   24.5087 C   0  0  0  0  0  0  0  0  0  0  0  0
    9.2385   12.0793   23.5047 C   0  0  0  0  0  0  0  0  0  0  0  0
    9.5409   10.5757   23.3906 C   0  0  0  0  0  0  0  0  0  0  0  0
    8.4656    9.5777   23.7802 C   0  0  0  0  0  0  0  0  0  0  0  0
    7.5102   10.0661   24.8424 C   0  0  0  0  0  0  0  0  0  0  0  0
    7.0425   11.4744   24.5758 C   0  0  0  0  0  0  0  0  0  0  0  0
    7.1266   14.4513   22.6305 S   0  0  0  0  0  0  0  0  0  0  0  0
    8.5779   15.0227   22.0356 N   0  0  0  0  0  0  0  0  0  0  0  0
    6.7756   13.3074   21.8231 O   0  0  0  0  0  0  0  0  0  0  0  0
    6.2530   15.6024   22.6596 O   0  0  0  0  0  0  0  0  0  0  0  0
  1  2  1  0
  3  2  1  6
  3  4  1  0
  4  5  1  0
  5  6  1  0
  6  7  1  0
  7  8  1  0
  8  9  1  0
  3 10  1  0
 10 11  1  0
 10 12  2  0
 10 13  2  0
  9  4  1  0
M  END
>  <inchikey>  (265) 
JPWQZFKBNRFGNF-UHFFFAOYSA-N

>  <energy_score>  (265) 
-45.96973

>  <subsites>  (265) 
1 - Active Site

>  <alias>  (265) 
C7633-P191

>  <tags>  (265) 
openbind_a71ev2a_c1_scaffolds,BulkDock Fragalysis export,openbind_a71ev2a_c1_knitwork_impure,fragmenstein_placed

>  <distance_score>  (265) 
0.950303

>  <placement_batch>  (265) 
openbind_a71ev2a_c1_knitwork_impure

>  <name>  (265) 
C7633-P191

>  <ref_mols>  (265) 
A0719a,A3509b

>  <smiles>  (265) 
CC[C@H](C1CCCCC1)S(N)(=O)=O

>  <HIPPO Compound ID>  (265) 
8882

>  <HIPPO Pose ID>  (265) 
389762

>  <ref_pdb>  (265) 
A3564a

$$$$
C7652-P191
     RDKit          3D

 12 12  0  0  0  0  0  0  0  0999 V2000
   12.1736   16.2587   22.9068 C   0  0  0  0  0  0  0  0  0  0  0  0
   10.6570   16.1346   22.8308 C   0  0  0  0  0  0  0  0  0  0  0  0
   10.1888   14.6905   22.6635 C   0  0  0  0  0  0  0  0  0  0  0  0
    9.9079   13.8906   24.2413 S   0  0  0  0  0  0  0  0  0  0  0  0
   11.0307   14.1835   25.1029 O   0  0  0  0  0  0  0  0  0  0  0  0
    8.5525   14.1420   24.6726 O   0  0  0  0  0  0  0  0  0  0  0  0
   10.0565   12.2756   23.8707 N   0  0  0  0  0  0  0  0  0  0  0  0
    8.9073   11.4691   23.4884 C   0  0  2  0  0  0  0  0  0  0  0  0
    7.9502   11.2121   24.6025 C   0  0  0  0  0  0  0  0  0  0  0  0
    7.6325    9.9175   24.7117 C   0  0  0  0  0  0  0  0  0  0  0  0
    8.3915    9.0809   23.7440 C   0  0  0  0  0  0  0  0  0  0  0  0
    9.4051   10.0519   23.1675 C   0  0  0  0  0  0  0  0  0  0  0  0
  1  2  1  0
  2  3  1  0
  3  4  1  0
  4  5  2  0
  4  6  2  0
  4  7  1  0
  8  7  1  1
  8  9  1  0
  9 10  2  0
 10 11  1  0
 11 12  1  0
 12  8  1  0
M  END
>  <inchikey>  (266) 
GPLKGJZEUOGKRW-UHFFFAOYSA-N

>  <energy_score>  (266) 
-17.558707

>  <subsites>  (266) 
1 - Active Site

>  <alias>  (266) 
C7652-P191

>  <tags>  (266) 
openbind_a71ev2a_c1_scaffolds,BulkDock Fragalysis export,openbind_a71ev2a_c1_knitwork_impure,fragmenstein_placed

>  <distance_score>  (266) 
0.972129

>  <placement_batch>  (266) 
openbind_a71ev2a_c1_knitwork_impure

>  <name>  (266) 
C7652-P191

>  <ref_mols>  (266) 
A0719a,A3509b

>  <smiles>  (266) 
CCCS(=O)(=O)N[C@@H]1C=CCC1

>  <HIPPO Compound ID>  (266) 
20148

>  <HIPPO Pose ID>  (266) 
389779

>  <ref_pdb>  (266) 
A3564a

$$$$
C7653-P191
     RDKit          3D

 13 13  0  0  0  0  0  0  0  0999 V2000
   12.3150   16.8587   22.0971 C   0  0  0  0  0  0  0  0  0  0  0  0
   11.5893   16.1430   23.2126 C   0  0  0  0  0  0  0  0  0  0  0  0
   10.7204   15.0432   22.6333 C   0  0  0  0  0  0  0  0  0  0  0  0
   10.1199   13.9865   23.9229 S   0  0  0  0  0  0  0  0  0  0  0  0
   11.2399   13.4600   24.6709 O   0  0  0  0  0  0  0  0  0  0  0  0
    9.0067   14.6057   24.6038 O   0  0  0  0  0  0  0  0  0  0  0  0
    9.5035   12.6996   23.0217 N   0  0  0  0  0  0  0  0  0  0  0  0
    8.9069   11.6593   23.8917 C   0  0  1  0  0  0  0  0  0  0  0  0
    7.4599   11.9789   24.2304 C   0  0  0  0  0  0  0  0  0  0  0  0
    6.8338   10.8479   24.9673 C   0  0  0  0  0  0  0  0  0  0  0  0
    7.2200    9.5831   24.7840 C   0  0  0  0  0  0  0  0  0  0  0  0
    8.3101    9.1579   23.8552 C   0  0  0  0  0  0  0  0  0  0  0  0
    9.1779   10.2784   23.3051 C   0  0  0  0  0  0  0  0  0  0  0  0
  1  2  1  0
  2  3  1  0
  3  4  1  0
  4  5  2  0
  4  6  2  0
  4  7  1  0
  8  7  1  6
  8  9  1  0
  9 10  1  0
 10 11  2  0
 11 12  1  0
 12 13  1  0
 13  8  1  0
M  END
>  <inchikey>  (267) 
NCZWCIZJDPQWNM-UHFFFAOYSA-N

>  <energy_score>  (267) 
-31.720124

>  <subsites>  (267) 
1 - Active Site

>  <alias>  (267) 
C7653-P191

>  <tags>  (267) 
openbind_a71ev2a_c1_scaffolds,BulkDock Fragalysis export,openbind_a71ev2a_c1_knitwork_impure,fragmenstein_placed

>  <distance_score>  (267) 
0.971729

>  <placement_batch>  (267) 
openbind_a71ev2a_c1_knitwork_impure

>  <name>  (267) 
C7653-P191

>  <ref_mols>  (267) 
A0719a,A3509b

>  <smiles>  (267) 
CCCS(=O)(=O)N[C@H]1CC=CCC1

>  <HIPPO Compound ID>  (267) 
7653

>  <HIPPO Pose ID>  (267) 
389780

>  <ref_pdb>  (267) 
A3564a

$$$$
C7654-P191
     RDKit          3D

 12 12  0  0  0  0  0  0  0  0999 V2000
   12.4261   16.0755   23.1420 C   0  0  0  0  0  0  0  0  0  0  0  0
   10.9214   16.2534   23.2278 C   0  0  0  0  0  0  0  0  0  0  0  0
   10.1830   15.0331   22.7124 C   0  0  0  0  0  0  0  0  0  0  0  0
    9.8978   13.8017   23.9729 S   0  0  0  0  0  0  0  0  0  0  0  0
   11.1175   13.5011   24.6834 O   0  0  0  0  0  0  0  0  0  0  0  0
    8.6862   14.1370   24.6851 O   0  0  0  0  0  0  0  0  0  0  0  0
    9.5876   12.4874   23.0075 N   0  0  0  0  0  0  0  0  0  0  0  0
    8.6772   11.4045   23.3859 C   0  0  1  0  0  0  0  0  0  0  0  0
    9.3985   10.0723   23.2865 C   0  0  0  0  0  0  0  0  0  0  0  0
    8.4421    8.9983   23.7379 C   0  0  0  0  0  0  0  0  0  0  0  0
    7.3230    9.7760   24.9329 S   0  0  0  0  0  0  0  0  0  0  0  0
    7.9648   11.4556   24.7206 C   0  0  0  0  0  0  0  0  0  0  0  0
  1  2  1  0
  2  3  1  0
  3  4  1  0
  4  5  2  0
  4  6  2  0
  4  7  1  0
  8  7  1  1
  8  9  1  0
  9 10  1  0
 10 11  1  0
 11 12  1  0
 12  8  1  0
M  END
>  <inchikey>  (268) 
GLYWQGPQWRVUJF-UHFFFAOYSA-N

>  <energy_score>  (268) 
-20.728399

>  <subsites>  (268) 
1 - Active Site

>  <alias>  (268) 
C7654-P191

>  <tags>  (268) 
openbind_a71ev2a_c1_scaffolds,BulkDock Fragalysis export,openbind_a71ev2a_c1_knitwork_impure,fragmenstein_placed

>  <distance_score>  (268) 
0.898679

>  <placement_batch>  (268) 
openbind_a71ev2a_c1_knitwork_impure

>  <name>  (268) 
C7654-P191

>  <ref_mols>  (268) 
A0719a,A3509b

>  <smiles>  (268) 
CCCS(=O)(=O)N[C@H]1CCSC1

>  <HIPPO Compound ID>  (268) 
7524

>  <HIPPO Pose ID>  (268) 
389781

>  <ref_pdb>  (268) 
A3564a

$$$$
C7479-P423
     RDKit          3D

 23 24  0  0  0  0  0  0  0  0999 V2000
    3.2977   12.5636   18.2267 C   0  0  0  0  0  0  0  0  0  0  0  0
    3.1378   12.7302   19.7363 C   0  0  0  0  0  0  0  0  0  0  0  0
    1.9927   11.8437   20.2316 C   0  0  0  0  0  0  0  0  0  0  0  0
    2.9033   14.1466   20.1205 C   0  0  0  0  0  0  0  0  0  0  0  0
    1.9284   14.7994   19.4189 O   0  0  0  0  0  0  0  0  0  0  0  0
    1.9412   16.0553   19.9200 C   0  0  0  0  0  0  0  0  0  0  0  0
    2.7766   16.2587   20.9140 N   0  0  0  0  0  0  0  0  0  0  0  0
    3.3967   15.0302   21.0691 C   0  0  0  0  0  0  0  0  0  0  0  0
    4.3887   14.8283   22.1630 C   0  0  0  0  0  0  0  0  0  0  0  0
    5.6491   15.4574   21.7887 N   0  0  0  0  0  0  0  0  0  0  0  0
    7.0523   14.6485   22.2134 S   0  0  0  0  0  0  0  0  0  0  0  0
    6.8005   13.2900   21.7518 O   0  0  0  0  0  0  0  0  0  0  0  0
    8.0549   15.3667   21.4579 O   0  0  0  0  0  0  0  0  0  0  0  0
    6.9594   14.8845   23.7257 N   0  0  0  0  0  0  0  0  0  0  0  0
    8.2940   14.5938   24.4288 S   0  0  2  0  0  0  0  0  0  0  0  0
    8.1298   15.2759   26.0659 C   0  0  0  0  0  0  0  0  0  0  0  0
    9.5825   15.0515   23.9532 O   0  0  0  0  0  0  0  0  0  0  0  0
    8.4628   12.8343   24.7871 C   0  0  0  0  0  0  0  0  0  0  0  0
    9.3820   12.1332   23.7824 C   0  0  0  0  0  0  0  0  0  0  0  0
    9.5958   10.6695   24.1507 C   0  0  0  0  0  0  0  0  0  0  0  0
    8.2868    9.9246   24.3340 C   0  0  0  0  0  0  0  0  0  0  0  0
    7.3095   10.6457   25.2505 C   0  0  0  0  0  0  0  0  0  0  0  0
    7.1212   12.1139   24.9072 C   0  0  0  0  0  0  0  0  0  0  0  0
  1  2  1  0
  2  3  1  0
  2  4  1  0
  4  5  1  0
  5  6  1  0
  6  7  2  0
  7  8  1  0
  8  9  1  0
  9 10  1  0
 10 11  1  0
 11 12  2  0
 11 13  2  0
 11 14  1  0
 14 15  2  0
 15 16  1  1
 15 17  2  0
 15 18  1  0
 18 19  1  0
 19 20  1  0
 20 21  1  0
 21 22  1  0
 22 23  1  0
  8  4  2  0
 23 18  1  0
M  END
>  <inchikey>  (269) 
BRFFCOVLYYYHTQ-UHFFFAOYSA-N

>  <energy_score>  (269) 
-244.539186

>  <subsites>  (269) 
1 - Active Site

>  <alias>  (269) 
C7479-P423

>  <tags>  (269) 
openbind_a71ev2a_c1_scaffolds,BulkDock Fragalysis export,openbind_a71ev2a_c1_knitwork_impure,fragmenstein_placed

>  <distance_score>  (269) 
0.918028

>  <placement_batch>  (269) 
openbind_a71ev2a_c1_knitwork_impure

>  <name>  (269) 
C7479-P423

>  <ref_mols>  (269) 
A3623a,A4650a

>  <smiles>  (269) 
CC(C)c1ocnc1CNS(=O)(=O)N=[S@](C)(=O)C1CCCCC1

>  <HIPPO Compound ID>  (269) 
8585

>  <HIPPO Pose ID>  (269) 
390233

>  <ref_pdb>  (269) 
A3564a

$$$$
C21692-P77
     RDKit          3D

 13 13  0  0  0  0  0  0  0  0999 V2000
    5.7479   15.5314   21.9556 N   0  0  0  0  0  0  0  0  0  0  0  0
    7.0984   14.7301   22.5750 S   0  0  0  0  0  0  0  0  0  0  0  0
    8.2190   15.5049   22.1098 O   0  0  0  0  0  0  0  0  0  0  0  0
    6.9024   13.3443   22.2097 O   0  0  0  0  0  0  0  0  0  0  0  0
    6.7731   15.0128   24.3007 C   0  0  0  0  0  0  0  0  0  0  0  0
    7.7627   14.3988   25.2699 C   0  0  0  0  0  0  0  0  0  0  0  0
    7.6109   12.8880   25.4197 C   0  0  0  0  0  0  0  0  0  0  0  0
    8.4244   12.0173   24.6039 N   0  0  0  0  0  0  0  0  0  0  0  0
    8.3632   10.5865   24.7808 C   0  0  0  0  0  0  0  0  0  0  0  0
    9.3691   10.0336   23.7865 C   0  0  0  0  0  0  0  0  0  0  0  0
   10.0819   11.1884   23.3508 N   0  0  0  0  0  0  0  0  0  0  0  0
    9.5190   12.3472   23.8217 C   0  0  0  0  0  0  0  0  0  0  0  0
    9.9522   13.4503   23.5666 O   0  0  0  0  0  0  0  0  0  0  0  0
  1  2  1  0
  2  3  2  0
  2  4  2  0
  2  5  1  0
  5  6  1  0
  6  7  1  0
  7  8  1  0
  8  9  1  0
  9 10  1  0
 10 11  1  0
 11 12  1  0
 12 13  2  0
 12  8  1  0
M  END
>  <inchikey>  (270) 
KFBTYOFOIPCZQH-UHFFFAOYSA-N

>  <energy_score>  (270) 
-28.551738

>  <subsites>  (270) 
1 - Active Site

>  <alias>  (270) 
C21692-P77

>  <tags>  (270) 
openbind_a71ev2a_c1_scaffolds,BulkDock Fragalysis export,openbind_a71ev2a_c1_knitwork_impure,fragmenstein_placed

>  <distance_score>  (270) 
0.808451

>  <placement_batch>  (270) 
openbind_a71ev2a_c1_knitwork_impure

>  <name>  (270) 
C21692-P77

>  <ref_mols>  (270) 
A3895a,A0719a

>  <smiles>  (270) 
NS(=O)(=O)CCCN1CCNC1=O

>  <HIPPO Compound ID>  (270) 
32018

>  <HIPPO Pose ID>  (270) 
390476

>  <ref_pdb>  (270) 
A3564a

$$$$
C9547-P384
     RDKit          3D

  9  9  0  0  0  0  0  0  0  0999 V2000
    7.9970   16.1151   25.1178 C   0  0  0  0  0  0  0  0  0  0  0  0
    7.6336   14.6528   25.3178 C   0  0  0  0  0  0  0  0  0  0  0  0
    8.6696   13.7082   24.7285 C   0  0  0  0  0  0  0  0  0  0  0  0
    9.7141   14.1249   24.2326 O   0  0  0  0  0  0  0  0  0  0  0  0
    8.4021   12.2733   24.7928 C   0  0  0  0  0  0  0  0  0  0  0  0
    7.2963   11.6071   25.4075 C   0  0  0  0  0  0  0  0  0  0  0  0
    7.2832   10.2768   25.3761 N   0  0  0  0  0  0  0  0  0  0  0  0
    8.6330    9.7656   24.5512 S   0  0  0  0  0  0  0  0  0  0  0  0
    9.2420   11.3264   24.2335 C   0  0  0  0  0  0  0  0  0  0  0  0
  1  2  1  0
  2  3  1  0
  3  4  2  0
  3  5  1  0
  5  6  1  0
  6  7  2  0
  7  8  1  0
  8  9  1  0
  9  5  2  0
M  END
>  <inchikey>  (271) 
VAWUEFSAMKXCBU-UHFFFAOYSA-N

>  <energy_score>  (271) 
-18.916343

>  <subsites>  (271) 
1 - Active Site

>  <alias>  (271) 
C9547-P384

>  <tags>  (271) 
openbind_a71ev2a_c1_scaffolds,BulkDock Fragalysis export,openbind_a71ev2a_c1_knitwork_impure,fragmenstein_placed

>  <distance_score>  (271) 
0.941356

>  <placement_batch>  (271) 
openbind_a71ev2a_c1_knitwork_impure

>  <name>  (271) 
C9547-P384

>  <ref_mols>  (271) 
A4509a,A0556a

>  <smiles>  (271) 
CCC(=O)c1cnsc1

>  <HIPPO Compound ID>  (271) 
18925

>  <HIPPO Pose ID>  (271) 
390560

>  <ref_pdb>  (271) 
A3564a

$$$$
C9548-P384
     RDKit          3D

  9  9  0  0  0  0  0  0  0  0999 V2000
    7.2431   14.3281   27.1777 O   0  0  0  0  0  0  0  0  0  0  0  0
    7.0520   14.8739   26.0962 C   0  0  0  0  0  0  0  0  0  0  0  0
    7.7655   14.5149   24.8160 C   0  0  0  0  0  0  0  0  0  0  0  0
    8.8456   13.4496   24.9753 C   0  0  0  0  0  0  0  0  0  0  0  0
    8.3492   12.0424   24.9916 C   0  0  0  0  0  0  0  0  0  0  0  0
    7.2067   11.4991   25.6231 C   0  0  0  0  0  0  0  0  0  0  0  0
    7.1053   10.1798   25.4526 N   0  0  0  0  0  0  0  0  0  0  0  0
    8.2102    9.8255   24.6981 O   0  0  0  0  0  0  0  0  0  0  0  0
    8.9389   10.9360   24.4220 C   0  0  0  0  0  0  0  0  0  0  0  0
  1  2  2  0
  2  3  1  0
  3  4  1  0
  4  5  1  0
  5  6  1  0
  6  7  2  0
  7  8  1  0
  8  9  1  0
  9  5  2  0
M  END
>  <inchikey>  (272) 
PVLRSSNEEAZVOH-UHFFFAOYSA-N

>  <energy_score>  (272) 
-14.869164

>  <subsites>  (272) 
1 - Active Site

>  <alias>  (272) 
C9548-P384

>  <tags>  (272) 
openbind_a71ev2a_c1_scaffolds,BulkDock Fragalysis export,openbind_a71ev2a_c1_knitwork_impure,fragmenstein_placed

>  <distance_score>  (272) 
0.788619

>  <placement_batch>  (272) 
openbind_a71ev2a_c1_knitwork_impure

>  <name>  (272) 
C9548-P384

>  <ref_mols>  (272) 
A4509a,A0556a

>  <smiles>  (272) 
O=CCCc1cnoc1

>  <HIPPO Compound ID>  (272) 
9548

>  <HIPPO Pose ID>  (272) 
390561

>  <ref_pdb>  (272) 
A3564a

$$$$
C11630-P384
     RDKit          3D

  9  9  0  0  0  0  0  0  0  0999 V2000
    6.5848   14.7822   24.1280 C   0  0  0  0  0  0  0  0  0  0  0  0
    7.6269   14.5223   25.2000 C   0  0  0  0  0  0  0  0  0  0  0  0
    8.6429   13.4996   24.7317 C   0  0  0  0  0  0  0  0  0  0  0  0
    9.7145   13.8694   24.2532 O   0  0  0  0  0  0  0  0  0  0  0  0
    8.3260   12.0834   24.8573 C   0  0  0  0  0  0  0  0  0  0  0  0
    7.1932   11.4403   25.4018 C   0  0  0  0  0  0  0  0  0  0  0  0
    7.2837   10.1076   25.3686 N   0  0  0  0  0  0  0  0  0  0  0  0
    8.4759    9.8866   24.7810 N   0  0  0  0  0  0  0  0  0  0  0  0
    9.1261   11.0365   24.4469 C   0  0  0  0  0  0  0  0  0  0  0  0
  1  2  1  0
  2  3  1  0
  3  4  2  0
  3  5  1  0
  5  6  1  0
  6  7  2  0
  7  8  1  0
  8  9  1  0
  9  5  2  0
M  END
>  <inchikey>  (273) 
ZYQQDEPLJNFLEF-UHFFFAOYSA-N

>  <energy_score>  (273) 
-14.579573

>  <subsites>  (273) 
1 - Active Site

>  <alias>  (273) 
C11630-P384

>  <tags>  (273) 
openbind_a71ev2a_c1_scaffolds,BulkDock Fragalysis export,openbind_a71ev2a_c1_knitwork_impure,fragmenstein_placed

>  <distance_score>  (273) 
0.973642

>  <placement_batch>  (273) 
openbind_a71ev2a_c1_knitwork_impure

>  <name>  (273) 
C11630-P384

>  <ref_mols>  (273) 
A4509a,A0556a

>  <smiles>  (273) 
CCC(=O)c1cn[nH]c1

>  <HIPPO Compound ID>  (273) 
7132

>  <HIPPO Pose ID>  (273) 
390570

>  <ref_pdb>  (273) 
A3564a

$$$$
C9539-P363
     RDKit          3D

 10 10  0  0  0  0  0  0  0  0999 V2000
    9.6774   10.5587   24.0770 C   0  0  0  0  0  0  0  0  0  0  0  0
    9.4641   12.0096   23.6912 C   0  0  0  0  0  0  0  0  0  0  0  0
    9.2958   12.9558   24.8599 C   0  0  0  0  0  0  0  0  0  0  0  0
   10.1272   13.8289   25.1101 O   0  0  0  0  0  0  0  0  0  0  0  0
    8.0503   12.8566   25.6765 C   0  0  0  0  0  0  0  0  0  0  0  0
    7.6486   13.9384   26.4508 C   0  0  0  0  0  0  0  0  0  0  0  0
    6.4841   13.8197   27.2068 C   0  0  0  0  0  0  0  0  0  0  0  0
    5.7666   12.6298   27.1738 C   0  0  0  0  0  0  0  0  0  0  0  0
    6.2440   11.6028   26.3784 C   0  0  0  0  0  0  0  0  0  0  0  0
    7.3632   11.6893   25.6261 N   0  0  0  0  0  0  0  0  0  0  0  0
  1  2  1  0
  2  3  1  0
  3  4  2  0
  3  5  1  0
  5  6  2  0
  6  7  1  0
  7  8  2  0
  8  9  1  0
  9 10  2  0
 10  5  1  0
M  END
>  <inchikey>  (274) 
ZHAZHKPVEROFLH-UHFFFAOYSA-N

>  <energy_score>  (274) 
-6.079268

>  <subsites>  (274) 
1 - Active Site

>  <alias>  (274) 
C9539-P363

>  <tags>  (274) 
openbind_a71ev2a_c1_scaffolds,BulkDock Fragalysis export,openbind_a71ev2a_c1_knitwork_impure,fragmenstein_placed

>  <distance_score>  (274) 
0.759332

>  <placement_batch>  (274) 
openbind_a71ev2a_c1_knitwork_impure

>  <name>  (274) 
C9539-P363

>  <ref_mols>  (274) 
A4445a,A2629a

>  <smiles>  (274) 
CCC(=O)c1ccccn1

>  <HIPPO Compound ID>  (274) 
9539

>  <HIPPO Pose ID>  (274) 
390975

>  <ref_pdb>  (274) 
A3564a

$$$$
C9549-P363
     RDKit          3D

 10 10  0  0  0  0  0  0  0  0999 V2000
    9.4642   10.0057   23.0893 O   0  0  0  0  0  0  0  0  0  0  0  0
    9.8504   10.8653   23.8699 C   0  0  0  0  0  0  0  0  0  0  0  0
    9.5874   12.3308   23.6796 C   0  0  0  0  0  0  0  0  0  0  0  0
    9.3667   13.0295   25.0150 C   0  0  0  0  0  0  0  0  0  0  0  0
    8.0359   12.7822   25.6908 C   0  0  0  0  0  0  0  0  0  0  0  0
    7.4131   11.5320   25.7402 C   0  0  0  0  0  0  0  0  0  0  0  0
    6.2270   11.3951   26.4516 C   0  0  0  0  0  0  0  0  0  0  0  0
    5.6318   12.3953   27.1284 N   0  0  0  0  0  0  0  0  0  0  0  0
    6.2322   13.6000   27.0614 C   0  0  0  0  0  0  0  0  0  0  0  0
    7.4157   13.8359   26.3744 C   0  0  0  0  0  0  0  0  0  0  0  0
  1  2  2  0
  2  3  1  0
  3  4  1  0
  4  5  1  0
  5  6  2  0
  6  7  1  0
  7  8  2  0
  8  9  1  0
  9 10  2  0
 10  5  1  0
M  END
>  <inchikey>  (275) 
WKDSMLUYURMGRK-UHFFFAOYSA-N

>  <energy_score>  (275) 
-7.619067

>  <subsites>  (275) 
1 - Active Site

>  <alias>  (275) 
C9549-P363

>  <tags>  (275) 
openbind_a71ev2a_c1_scaffolds,BulkDock Fragalysis export,openbind_a71ev2a_c1_knitwork_impure,fragmenstein_placed

>  <distance_score>  (275) 
0.933607

>  <placement_batch>  (275) 
openbind_a71ev2a_c1_knitwork_impure

>  <name>  (275) 
C9549-P363

>  <ref_mols>  (275) 
A4445a,A2629a

>  <smiles>  (275) 
O=CCCc1ccncc1

>  <HIPPO Compound ID>  (275) 
5945

>  <HIPPO Pose ID>  (275) 
390983

>  <ref_pdb>  (275) 
A3564a

$$$$
C3759-P487
     RDKit          3D

 12 13  0  0  0  0  0  0  0  0999 V2000
    6.3577   10.7852   26.1293 S   0  0  0  0  0  0  0  0  0  0  0  0
    7.5597   10.8441   25.0124 C   0  0  0  0  0  0  0  0  0  0  0  0
    8.2874    9.8531   24.4346 N   0  0  0  0  0  0  0  0  0  0  0  0
    9.1892   10.3801   23.5645 N   0  0  0  0  0  0  0  0  0  0  0  0
    8.9709   11.6569   23.6415 C   0  0  0  0  0  0  0  0  0  0  0  0
    9.7227   12.7215   22.8944 C   0  0  2  0  0  0  0  0  0  0  0  0
   10.9472   13.2183   23.6672 C   0  0  0  0  0  0  0  0  0  0  0  0
   10.7668   14.6237   24.2250 C   0  0  0  0  0  0  0  0  0  0  0  0
    9.3188   14.8780   24.6073 C   0  0  0  0  0  0  0  0  0  0  0  0
    8.4282   14.8122   23.4589 N   0  0  0  0  0  0  0  0  0  0  0  0
    8.8219   13.8656   22.4206 C   0  0  0  0  0  0  0  0  0  0  0  0
    7.9947   12.0213   24.5032 O   0  0  0  0  0  0  0  0  0  0  0  0
  1  2  2  0
  2  3  1  0
  3  4  1  0
  4  5  2  0
  6  5  1  1
  6  7  1  0
  7  8  1  0
  8  9  1  0
  9 10  1  0
 10 11  1  0
  5 12  1  0
 12  2  1  0
 11  6  1  0
M  END
>  <inchikey>  (276) 
QHGGWPPDZUPZIG-UHFFFAOYSA-N

>  <energy_score>  (276) 
-15.778217

>  <subsites>  (276) 
1 - Active Site

>  <alias>  (276) 
C3759-P487

>  <tags>  (276) 
openbind_a71ev2a_c1_scaffolds,BulkDock Fragalysis export,openbind_a71ev2a_c1_knitwork_impure,fragmenstein_placed

>  <distance_score>  (276) 
0.982861

>  <placement_batch>  (276) 
openbind_a71ev2a_c1_knitwork_impure

>  <name>  (276) 
C3759-P487

>  <ref_mols>  (276) 
A0556a,A4846a

>  <smiles>  (276) 
S=c1[nH]nc([C@@H]2CCCNC2)o1

>  <HIPPO Compound ID>  (276) 
5642

>  <HIPPO Pose ID>  (276) 
391130

>  <ref_pdb>  (276) 
A1779a

$$$$
C7640-P153
     RDKit          3D

 12 12  0  0  0  0  0  0  0  0999 V2000
    6.9004   15.0758   26.7460 C   0  0  0  0  0  0  0  0  0  0  0  0
    7.5810   15.1873   25.3945 C   0  0  0  0  0  0  0  0  0  0  0  0
    6.6560   14.7598   24.2650 C   0  0  0  0  0  0  0  0  0  0  0  0
    7.5267   14.3729   22.7508 S   0  0  0  0  0  0  0  0  0  0  0  0
    8.6620   15.2540   22.6043 O   0  0  0  0  0  0  0  0  0  0  0  0
    6.5795   14.1937   21.6745 O   0  0  0  0  0  0  0  0  0  0  0  0
    8.1916   12.8428   22.9068 N   0  0  0  0  0  0  0  0  0  0  0  0
    8.7876   12.2878   24.1319 C   0  0  0  0  0  0  0  0  0  0  0  0
    7.7560   11.7434   25.1106 C   0  0  0  0  0  0  0  0  0  0  0  0
    7.9439   10.2403   25.2261 C   0  0  0  0  0  0  0  0  0  0  0  0
    8.8940    9.8258   24.1240 C   0  0  0  0  0  0  0  0  0  0  0  0
    9.6300   11.0844   23.7161 C   0  0  0  0  0  0  0  0  0  0  0  0
  1  2  1  0
  2  3  1  0
  3  4  1  0
  4  5  2  0
  4  6  2  0
  4  7  1  0
  7  8  1  0
  8  9  1  0
  9 10  1  0
 10 11  1  0
 11 12  1  0
 12  8  1  0
M  END
>  <inchikey>  (277) 
IMNXQIZMBRQERC-UHFFFAOYSA-N

>  <energy_score>  (277) 
-15.856504

>  <subsites>  (277) 
1 - Active Site

>  <alias>  (277) 
C7640-P153

>  <tags>  (277) 
openbind_a71ev2a_c1_scaffolds,BulkDock Fragalysis export,openbind_a71ev2a_c1_knitwork_impure,fragmenstein_placed

>  <distance_score>  (277) 
0.997727

>  <placement_batch>  (277) 
openbind_a71ev2a_c1_knitwork_impure

>  <name>  (277) 
C7640-P153

>  <ref_mols>  (277) 
A3207a,A0719a

>  <smiles>  (277) 
CCCS(=O)(=O)NC1CCCC1

>  <HIPPO Compound ID>  (277) 
25792

>  <HIPPO Pose ID>  (277) 
391357

>  <ref_pdb>  (277) 
A1779a

$$$$
C7643-P153
     RDKit          3D

 13 14  0  0  0  0  0  0  0  0999 V2000
    7.0089   15.2909   26.8572 C   0  0  0  0  0  0  0  0  0  0  0  0
    7.9633   15.0278   25.7096 C   0  0  0  0  0  0  0  0  0  0  0  0
    7.2061   14.6506   24.4486 C   0  0  0  0  0  0  0  0  0  0  0  0
    8.2695   13.9923   23.1759 S   0  0  0  0  0  0  0  0  0  0  0  0
    9.1214   15.0516   22.6848 O   0  0  0  0  0  0  0  0  0  0  0  0
    7.4586   13.2041   22.2706 O   0  0  0  0  0  0  0  0  0  0  0  0
    9.3092   12.9309   24.0946 N   0  0  0  0  0  0  0  0  0  0  0  0
    8.8830   11.5171   24.1404 C   0  0  2  0  0  0  0  0  0  0  0  0
    7.6142   11.3032   24.9279 C   0  0  0  0  0  0  0  0  0  0  0  0
    7.5828    9.8655   25.4315 C   0  0  0  0  0  0  0  0  0  0  0  0
    8.5860    9.1285   24.5692 C   0  0  0  0  0  0  0  0  0  0  0  0
    9.5800   10.1878   24.2094 C   0  0  1  0  0  0  0  0  0  0  0  0
    9.3825   10.7814   22.9037 C   0  0  0  0  0  0  0  0  0  0  0  0
  1  2  1  0
  2  3  1  0
  3  4  1  0
  4  5  2  0
  4  6  2  0
  4  7  1  0
  8  7  1  1
  8  9  1  0
  9 10  1  0
 10 11  1  0
 12 11  1  6
 12 13  1  0
 12  8  1  0
 13  8  1  0
M  END
>  <inchikey>  (278) 
XNDSEHCZSDWHNY-UHFFFAOYSA-N

>  <energy_score>  (278) 
-16.929958

>  <subsites>  (278) 
1 - Active Site

>  <alias>  (278) 
C7643-P153

>  <tags>  (278) 
openbind_a71ev2a_c1_scaffolds,BulkDock Fragalysis export,openbind_a71ev2a_c1_knitwork_impure,fragmenstein_placed

>  <distance_score>  (278) 
0.97269

>  <placement_batch>  (278) 
openbind_a71ev2a_c1_knitwork_impure

>  <name>  (278) 
C7643-P153

>  <ref_mols>  (278) 
A3207a,A0719a

>  <smiles>  (278) 
CCCS(=O)(=O)N[C@]12CCC[C@H]1C2

>  <HIPPO Compound ID>  (278) 
10832

>  <HIPPO Pose ID>  (278) 
391360

>  <ref_pdb>  (278) 
A1779a

$$$$
C7664-P153
     RDKit          3D

 11 11  0  0  0  0  0  0  0  0999 V2000
    9.1681    9.2695   23.9758 C   0  0  0  0  0  0  0  0  0  0  0  0
    9.3340   10.7523   23.7058 C   0  0  0  0  0  0  0  0  0  0  0  0
    8.2946   11.5963   24.4243 C   0  0  0  0  0  0  0  0  0  0  0  0
    8.0611   13.2213   23.7076 S   0  0  0  0  0  0  0  0  0  0  0  0
    7.5338   14.0569   24.7622 O   0  0  0  0  0  0  0  0  0  0  0  0
    7.3913   13.0726   22.4293 O   0  0  0  0  0  0  0  0  0  0  0  0
    9.6849   13.6276   23.3449 N   0  0  0  0  0  0  0  0  0  0  0  0
    9.7924   15.0286   23.2517 N   0  0  0  0  0  0  0  0  0  0  0  0
   10.3653   15.4817   21.9453 C   0  0  0  0  0  0  0  0  0  0  0  0
   11.7694   15.3607   22.5478 C   0  0  0  0  0  0  0  0  0  0  0  0
   11.0549   15.4714   23.9020 C   0  0  0  0  0  0  0  0  0  0  0  0
  1  2  1  0
  2  3  1  0
  3  4  1  0
  4  5  2  0
  4  6  2  0
  4  7  1  0
  7  8  1  0
  8  9  1  0
  9 10  1  0
 10 11  1  0
 11  8  1  0
M  END
>  <inchikey>  (279) 
YZSYVMJRAIIIQD-UHFFFAOYSA-N

>  <energy_score>  (279) 
-29.081206

>  <subsites>  (279) 
1 - Active Site

>  <alias>  (279) 
C7664-P153

>  <tags>  (279) 
openbind_a71ev2a_c1_scaffolds,BulkDock Fragalysis export,openbind_a71ev2a_c1_knitwork_impure,fragmenstein_placed

>  <distance_score>  (279) 
0.974068

>  <placement_batch>  (279) 
openbind_a71ev2a_c1_knitwork_impure

>  <name>  (279) 
C7664-P153

>  <ref_mols>  (279) 
A3207a,A0719a

>  <smiles>  (279) 
CCCS(=O)(=O)NN1CCC1

>  <HIPPO Compound ID>  (279) 
32383

>  <HIPPO Pose ID>  (279) 
391371

>  <ref_pdb>  (279) 
A1779a

$$$$
C7678-P153
     RDKit          3D

 13 13  0  0  0  0  0  0  0  0999 V2000
   11.5328   16.5278   22.2199 N   0  0  0  0  0  0  0  0  0  0  0  0
   10.1806   15.6605   21.7138 S   0  0  0  0  0  0  0  0  0  0  0  0
    9.0781   16.5879   21.7238 O   0  0  0  0  0  0  0  0  0  0  0  0
   10.5884   14.9536   20.5264 O   0  0  0  0  0  0  0  0  0  0  0  0
   10.0153   14.5497   23.0918 C   0  0  0  0  0  0  0  0  0  0  0  0
    8.5645   14.1819   23.3438 C   0  0  0  0  0  0  0  0  0  0  0  0
    8.3984   13.3716   24.6266 C   0  0  0  0  0  0  0  0  0  0  0  0
    8.2896   11.8690   24.3662 C   0  0  0  0  0  0  0  0  0  0  0  0
    9.5622   11.2932   23.7563 C   0  0  0  0  0  0  0  0  0  0  0  0
    9.6796    9.7774   23.7717 C   0  0  0  0  0  0  0  0  0  0  0  0
    8.5341    9.0050   24.3684 C   0  0  0  0  0  0  0  0  0  0  0  0
    7.6469    9.6771   25.4095 C   0  0  0  0  0  0  0  0  0  0  0  0
    7.9155   11.1452   25.6404 C   0  0  0  0  0  0  0  0  0  0  0  0
  1  2  1  0
  2  3  2  0
  2  4  2  0
  2  5  1  0
  5  6  1  0
  6  7  1  0
  7  8  1  0
  8  9  1  0
  9 10  1  0
 10 11  1  0
 11 12  1  0
 12 13  1  0
 13  8  1  0
M  END
>  <inchikey>  (280) 
ROOFZUAQKFMYKH-UHFFFAOYSA-N

>  <energy_score>  (280) 
-32.703188

>  <subsites>  (280) 
1 - Active Site

>  <alias>  (280) 
C7678-P153

>  <tags>  (280) 
openbind_a71ev2a_c1_scaffolds,BulkDock Fragalysis export,openbind_a71ev2a_c1_knitwork_impure,fragmenstein_placed

>  <distance_score>  (280) 
0.912111

>  <placement_batch>  (280) 
openbind_a71ev2a_c1_knitwork_impure

>  <name>  (280) 
C7678-P153

>  <ref_mols>  (280) 
A3207a,A0719a

>  <smiles>  (280) 
NS(=O)(=O)CCCC1CCCCC1

>  <HIPPO Compound ID>  (280) 
20648

>  <HIPPO Pose ID>  (280) 
391376

>  <ref_pdb>  (280) 
A1779a

$$$$
C6703-P174
     RDKit          3D

 15 15  0  0  0  0  0  0  0  0999 V2000
   10.8045   12.3095   23.1613 C   0  0  0  0  0  0  0  0  0  0  0  0
   10.2923   13.7359   23.2965 C   0  0  0  0  0  0  0  0  0  0  0  0
   10.6802   14.2373   24.6989 C   0  0  0  0  0  0  0  0  0  0  0  0
   10.7686   14.6501   22.1198 C   0  0  0  0  0  0  0  0  0  0  0  0
   12.2609   14.9506   22.0644 C   0  0  0  0  0  0  0  0  0  0  0  0
   13.0130   14.4625   22.9049 O   0  0  0  0  0  0  0  0  0  0  0  0
   12.7260   15.8941   21.0692 C   0  0  0  0  0  0  0  0  0  0  0  0
   13.7368   16.8270   21.2112 C   0  0  0  0  0  0  0  0  0  0  0  0
   13.8995   17.5860   20.0850 N   0  0  0  0  0  0  0  0  0  0  0  0
   13.0679   17.0638   19.2161 C   0  0  0  0  0  0  0  0  0  0  0  0
   12.3122   16.0623   19.7667 N   0  0  0  0  0  0  0  0  0  0  0  0
    8.7743   13.6935   23.2740 C   0  0  0  0  0  0  0  0  0  0  0  0
    8.2641   14.8916   23.6323 F   0  0  0  0  0  0  0  0  0  0  0  0
    8.2984   12.7676   24.1389 F   0  0  0  0  0  0  0  0  0  0  0  0
    8.2671   13.3930   22.0606 F   0  0  0  0  0  0  0  0  0  0  0  0
  1  2  1  0
  2  3  1  0
  2  4  1  0
  4  5  1  0
  5  6  2  0
  5  7  1  0
  7  8  2  0
  8  9  1  0
  9 10  2  0
 10 11  1  0
  2 12  1  0
 12 13  1  0
 12 14  1  0
 12 15  1  0
 11  7  1  0
M  END
>  <inchikey>  (281) 
OVGXOABIOXLLGL-UHFFFAOYSA-N

>  <energy_score>  (281) 
-17.12576

>  <subsites>  (281) 
1 - Active Site

>  <alias>  (281) 
C6703-P174

>  <tags>  (281) 
openbind_a71ev2a_c1_scaffolds,BulkDock Fragalysis export,openbind_a71ev2a_c1_knitwork_impure,fragmenstein_placed

>  <distance_score>  (281) 
0.976377

>  <placement_batch>  (281) 
openbind_a71ev2a_c1_knitwork_impure

>  <name>  (281) 
C6703-P174

>  <ref_mols>  (281) 
A1775a,A3371a

>  <smiles>  (281) 
CC(C)(CC(=O)c1cnc[nH]1)C(F)(F)F

>  <HIPPO Compound ID>  (281) 
10686

>  <HIPPO Pose ID>  (281) 
391387

>  <ref_pdb>  (281) 
A1779a

$$$$
C8169-P291
     RDKit          3D

 14 14  0  0  0  0  0  0  0  0999 V2000
    7.6627   12.8751   22.6808 O   0  0  0  0  0  0  0  0  0  0  0  0
    8.8506   13.0577   23.4819 S   0  0  0  0  0  0  0  0  0  0  0  0
    9.9092   12.0817   23.5312 O   0  0  0  0  0  0  0  0  0  0  0  0
    8.2955   13.1889   25.0657 N   0  0  0  0  0  0  0  0  0  0  0  0
    7.2780   14.2356   25.2834 C   0  0  0  0  0  0  0  0  0  0  0  0
    6.6850   14.1078   26.6842 C   0  0  0  0  0  0  0  0  0  0  0  0
    5.5825   13.0512   26.7951 C   0  0  0  0  0  0  0  0  0  0  0  0
    6.1810   11.3866   26.6248 Cl  0  0  0  0  0  0  0  0  0  0  0  0
    9.4490   14.5965   23.2640 N   0  0  0  0  0  0  0  0  0  0  0  0
   10.6966   14.9817   23.9366 C   0  0  0  0  0  0  0  0  0  0  0  0
   11.8860   14.8155   23.0039 C   0  0  0  0  0  0  0  0  0  0  0  0
   11.6855   15.5935   21.7076 C   0  0  0  0  0  0  0  0  0  0  0  0
   10.3873   15.1645   21.0363 C   0  0  0  0  0  0  0  0  0  0  0  0
    9.2029   15.3018   21.9814 C   0  0  0  0  0  0  0  0  0  0  0  0
  1  2  2  0
  2  3  2  0
  2  4  1  0
  4  5  1  0
  5  6  1  0
  6  7  1  0
  7  8  1  0
  2  9  1  0
  9 10  1  0
 10 11  1  0
 11 12  1  0
 12 13  1  0
 13 14  1  0
 14  9  1  0
M  END
>  <inchikey>  (282) 
BYDQDZLINGKUEV-UHFFFAOYSA-N

>  <energy_score>  (282) 
-98.263782

>  <subsites>  (282) 
1 - Active Site

>  <alias>  (282) 
C8169-P291

>  <tags>  (282) 
openbind_a71ev2a_c1_scaffolds,BulkDock Fragalysis export,openbind_a71ev2a_c1_knitwork_impure,fragmenstein_placed

>  <distance_score>  (282) 
0.676873

>  <placement_batch>  (282) 
openbind_a71ev2a_c1_knitwork_impure

>  <name>  (282) 
C8169-P291

>  <ref_mols>  (282) 
A4308a,A0719a

>  <smiles>  (282) 
O=S(=O)(NCCCCl)N1CCCCC1

>  <HIPPO Compound ID>  (282) 
1384

>  <HIPPO Pose ID>  (282) 
391466

>  <ref_pdb>  (282) 
A1779a

$$$$
C6269-P487
     RDKit          3D

 12 13  0  0  0  0  0  0  0  0999 V2000
   10.7162   15.2938   21.1129 C   0  0  0  0  0  0  0  0  0  0  0  0
   11.4910   14.9543   22.2114 C   0  0  0  0  0  0  0  0  0  0  0  0
   10.9251   14.2083   23.2407 C   0  0  0  0  0  0  0  0  0  0  0  0
    9.5829   13.8376   23.1403 C   0  0  0  0  0  0  0  0  0  0  0  0
    8.9302   12.9771   24.2127 C   0  0  1  0  0  0  0  0  0  0  0  0
    7.7042   13.7409   24.7603 C   0  0  0  0  0  0  0  0  0  0  0  0
    6.8509   12.8608   26.1179 S   0  0  0  0  0  0  0  0  0  0  0  0
    6.7200   11.2562   25.2909 C   0  0  0  0  0  0  0  0  0  0  0  0
    8.0300   10.7537   24.6903 C   0  0  0  0  0  0  0  0  0  0  0  0
    8.5930   11.6381   23.6799 N   0  0  0  0  0  0  0  0  0  0  0  0
    8.8078   14.1808   22.0818 N   0  0  0  0  0  0  0  0  0  0  0  0
    9.3940   14.8960   21.0986 C   0  0  0  0  0  0  0  0  0  0  0  0
  1  2  2  0
  2  3  1  0
  3  4  2  0
  5  4  1  6
  5  6  1  0
  6  7  1  0
  7  8  1  0
  8  9  1  0
  9 10  1  0
  4 11  1  0
 11 12  2  0
 12  1  1  0
 10  5  1  0
M  END
>  <inchikey>  (283) 
WYVCMIYBKYUXJW-UHFFFAOYSA-N

>  <energy_score>  (283) 
-29.040292

>  <subsites>  (283) 
1 - Active Site

>  <alias>  (283) 
C6269-P487

>  <tags>  (283) 
openbind_a71ev2a_c1_scaffolds,BulkDock Fragalysis export,openbind_a71ev2a_c1_knitwork_impure,fragmenstein_placed

>  <distance_score>  (283) 
0.923528

>  <placement_batch>  (283) 
openbind_a71ev2a_c1_knitwork_impure

>  <name>  (283) 
C6269-P487

>  <ref_mols>  (283) 
A3564a,A4846a

>  <smiles>  (283) 
c1ccc([C@H]2CSCCN2)nc1

>  <HIPPO Compound ID>  (283) 
7067

>  <HIPPO Pose ID>  (283) 
391525

>  <ref_pdb>  (283) 
A1779a

$$$$
C725-P487
     RDKit          3D

 12 13  0  0  0  0  0  0  0  0999 V2000
   10.7050   15.2116   21.3629 C   0  0  0  0  0  0  0  0  0  0  0  0
   11.4377   14.8128   22.4699 C   0  0  0  0  0  0  0  0  0  0  0  0
   10.8119   14.0804   23.4759 C   0  0  0  0  0  0  0  0  0  0  0  0
    9.4572   13.7784   23.3481 C   0  0  0  0  0  0  0  0  0  0  0  0
    8.8372   12.9731   24.3586 N   0  0  0  0  0  0  0  0  0  0  0  0
    7.5071   13.5694   24.6316 C   0  0  0  0  0  0  0  0  0  0  0  0
    6.7983   12.8694   25.7881 C   0  0  0  0  0  0  0  0  0  0  0  0
    6.5298   11.0852   25.5354 S   0  0  0  0  0  0  0  0  0  0  0  0
    8.1081   10.6276   24.7582 C   0  0  0  0  0  0  0  0  0  0  0  0
    8.7082   11.6208   23.7699 C   0  0  0  0  0  0  0  0  0  0  0  0
    8.7302   14.1686   22.2780 N   0  0  0  0  0  0  0  0  0  0  0  0
    9.3667   14.8765   21.3177 C   0  0  0  0  0  0  0  0  0  0  0  0
  1  2  2  0
  2  3  1  0
  3  4  2  0
  4  5  1  0
  5  6  1  0
  6  7  1  0
  7  8  1  0
  8  9  1  0
  9 10  1  0
  4 11  1  0
 11 12  2  0
 12  1  1  0
 10  5  1  0
M  END
>  <inchikey>  (284) 
MIZHWJKJFPMAHV-UHFFFAOYSA-N

>  <energy_score>  (284) 
-18.851248

>  <subsites>  (284) 
1 - Active Site

>  <alias>  (284) 
C725-P487

>  <tags>  (284) 
openbind_a71ev2a_c1_scaffolds,BulkDock Fragalysis export,openbind_a71ev2a_c1_knitwork_impure,fragmenstein_placed

>  <distance_score>  (284) 
0.967007

>  <placement_batch>  (284) 
openbind_a71ev2a_c1_knitwork_impure

>  <name>  (284) 
C725-P487

>  <ref_mols>  (284) 
A3564a,A4846a

>  <smiles>  (284) 
c1ccc(N2CCSCC2)nc1

>  <HIPPO Compound ID>  (284) 
14773

>  <HIPPO Pose ID>  (284) 
391538

>  <ref_pdb>  (284) 
A1779a

$$$$
C744-P219
     RDKit          3D

 12 13  0  0  0  0  0  0  0  0999 V2000
    7.5227   11.0652   25.5660 C   0  0  0  0  0  0  0  0  0  0  0  0
    8.4437   10.6403   24.6868 C   0  0  0  0  0  0  0  0  0  0  0  0
    9.2921   11.5424   23.8299 C   0  0  0  0  0  0  0  0  0  0  0  0
    9.2227   12.9291   24.3156 N   0  0  0  0  0  0  0  0  0  0  0  0
    9.7653   13.7691   23.3007 C   0  0  0  0  0  0  0  0  0  0  0  0
   11.1481   13.9330   23.2324 C   0  0  0  0  0  0  0  0  0  0  0  0
   11.6945   14.7150   22.2170 C   0  0  0  0  0  0  0  0  0  0  0  0
   10.8500   15.3132   21.2934 C   0  0  0  0  0  0  0  0  0  0  0  0
    9.4908   15.1145   21.4343 C   0  0  0  0  0  0  0  0  0  0  0  0
    8.9415   14.3481   22.4000 N   0  0  0  0  0  0  0  0  0  0  0  0
    7.8390   13.3635   24.6100 C   0  0  0  0  0  0  0  0  0  0  0  0
    7.2623   12.5310   25.7594 C   0  0  0  0  0  0  0  0  0  0  0  0
  1  2  2  0
  2  3  1  0
  3  4  1  0
  4  5  1  0
  5  6  2  0
  6  7  1  0
  7  8  2  0
  8  9  1  0
  9 10  2  0
  4 11  1  0
 11 12  1  0
 12  1  1  0
 10  5  1  0
M  END
>  <inchikey>  (285) 
OTKRQPFMRSSARE-UHFFFAOYSA-N

>  <energy_score>  (285) 
-12.968536

>  <subsites>  (285) 
1 - Active Site

>  <alias>  (285) 
C744-P219

>  <tags>  (285) 
openbind_a71ev2a_c1_scaffolds,BulkDock Fragalysis export,openbind_a71ev2a_c1_knitwork_impure,fragmenstein_placed

>  <distance_score>  (285) 
0.786828

>  <placement_batch>  (285) 
openbind_a71ev2a_c1_knitwork_impure

>  <name>  (285) 
C744-P219

>  <ref_mols>  (285) 
A3986b,A3564a,A4650a,A4846a

>  <smiles>  (285) 
C1=CCN(c2ccccn2)CC1

>  <HIPPO Compound ID>  (285) 
9822

>  <HIPPO Pose ID>  (285) 
391547

>  <ref_pdb>  (285) 
A1779a

$$$$
C7137-P423
     RDKit          3D

 19 20  0  0  0  0  0  0  0  0999 V2000
    3.4827   12.2825   30.4812 C   0  0  0  0  0  0  0  0  0  0  0  0
    3.0488   11.1911   29.5051 C   0  0  2  0  0  0  0  0  0  0  0  0
    3.2130   11.7062   28.0611 C   0  0  0  0  0  0  0  0  0  0  0  0
    4.4819   11.1552   27.4300 C   0  0  0  0  0  0  0  0  0  0  0  0
    4.9385   10.1322   27.7537 O   0  0  0  0  0  0  0  0  0  0  0  0
    4.9107   12.1368   26.3111 N   0  0  0  0  0  0  0  0  0  0  0  0
    5.9760   12.1077   25.4785 C   0  0  0  0  0  0  0  0  0  0  0  0
    6.4009   13.1340   24.7871 N   0  0  0  0  0  0  0  0  0  0  0  0
    7.5104   12.7556   24.0529 C   0  0  0  0  0  0  0  0  0  0  0  0
    7.8845   11.4408   24.2024 C   0  0  0  0  0  0  0  0  0  0  0  0
    9.1526   10.8240   23.5568 C   0  0  0  0  0  0  0  0  0  0  0  0
    9.2109    9.3003   23.3353 C   0  0  0  0  0  0  0  0  0  0  0  0
   10.5984    9.3152   23.8718 N   0  0  0  0  0  0  0  0  0  0  0  0
   10.2390   10.5441   24.6029 C   0  0  0  0  0  0  0  0  0  0  0  0
    6.8331   10.6562   25.2808 S   0  0  0  0  0  0  0  0  0  0  0  0
    1.6131   10.7680   29.7478 C   0  0  0  0  0  0  0  0  0  0  0  0
    1.4128   10.4099   31.0316 F   0  0  0  0  0  0  0  0  0  0  0  0
    1.2860    9.7142   28.9669 F   0  0  0  0  0  0  0  0  0  0  0  0
    0.7649   11.7747   29.4516 F   0  0  0  0  0  0  0  0  0  0  0  0
  2  1  1  1
  2  3  1  0
  3  4  1  0
  4  5  2  0
  4  6  1  0
  6  7  1  0
  7  8  2  0
  8  9  1  0
  9 10  2  0
 10 11  1  0
 11 12  1  0
 12 13  1  0
 13 14  1  0
 10 15  1  0
  2 16  1  0
 16 17  1  0
 16 18  1  0
 16 19  1  0
 15  7  1  0
 14 11  1  0
M  END
>  <inchikey>  (286) 
DWCBDTDREZNSGU-UHFFFAOYSA-N

>  <energy_score>  (286) 
-63.826018

>  <subsites>  (286) 
1 - Active Site

>  <alias>  (286) 
C7137-P423

>  <tags>  (286) 
openbind_a71ev2a_c1_scaffolds,BulkDock Fragalysis export,openbind_a71ev2a_c1_knitwork_impure,fragmenstein_placed

>  <distance_score>  (286) 
0.857745

>  <placement_batch>  (286) 
openbind_a71ev2a_c1_knitwork_impure

>  <name>  (286) 
C7137-P423

>  <ref_mols>  (286) 
A1445a,A4650a

>  <smiles>  (286) 
C[C@H](CC(=O)Nc1ncc(C2CNC2)s1)C(F)(F)F

>  <HIPPO Compound ID>  (286) 
1685

>  <HIPPO Pose ID>  (286) 
391680

>  <ref_pdb>  (286) 
A1779a

$$$$
C38801-P76
     RDKit          3D

 12 13  0  0  0  0  0  0  0  0999 V2000
    5.0362   13.4834    1.6464 O   0  0  0  0  0  0  0  0  0  0  0  0
    5.3224   12.8749    2.6735 C   0  0  0  0  0  0  0  0  0  0  0  0
    5.1615   11.3947    2.8182 C   0  0  0  0  0  0  0  0  0  0  0  0
    6.5395   10.8476    3.1363 C   0  0  0  0  0  0  0  0  0  0  0  0
    7.2078   11.5532    4.1980 O   0  0  0  0  0  0  0  0  0  0  0  0
    7.3045   12.9789    4.0247 C   0  0  1  0  0  0  0  0  0  0  0  0
    8.2495   13.4232    2.9433 C   0  0  0  0  0  0  0  0  0  0  0  0
    9.1067   12.6406    2.1357 C   0  0  0  0  0  0  0  0  0  0  0  0
    9.8080   13.3668    1.2626 N   0  0  0  0  0  0  0  0  0  0  0  0
    9.3663   14.6144    1.4624 N   0  0  0  0  0  0  0  0  0  0  0  0
    8.4806   14.7115    2.4949 C   0  0  0  0  0  0  0  0  0  0  0  0
    5.9082   13.5653    3.8688 C   0  0  0  0  0  0  0  0  0  0  0  0
  1  2  2  0
  2  3  1  0
  3  4  1  0
  4  5  1  0
  5  6  1  0
  6  7  1  6
  7  8  1  0
  8  9  2  0
  9 10  1  0
 10 11  1  0
  6 12  1  0
 12  2  1  0
 11  7  2  0
M  END
>  <inchikey>  (287) 
REXDXSHVJSWRIX-UHFFFAOYSA-N

>  <energy_score>  (287) 
-12.003729

>  <subsites>  (287) 
3 - A0541/A/147/1

>  <alias>  (287) 
C38801-P76

>  <tags>  (287) 
openbind_a71ev2a_c1_scaffolds,BulkDock Fragalysis export,openbind_a71ev2a_c1_knitwork_impure,fragmenstein_placed

>  <distance_score>  (287) 
0.893763

>  <placement_batch>  (287) 
openbind_a71ev2a_c1_knitwork_impure

>  <name>  (287) 
C38801-P76

>  <ref_mols>  (287) 
A0354a,A0717a

>  <smiles>  (287) 
O=C1CCO[C@@H](c2cn[nH]c2)C1

>  <HIPPO Compound ID>  (287) 
10527

>  <HIPPO Pose ID>  (287) 
391758

>  <ref_pdb>  (287) 
A1779a

$$$$
C3256-P185
     RDKit          3D

 16 18  0  0  0  0  0  0  0  0999 V2000
    8.1955   11.5435   24.3076 C   0  0  0  0  0  0  0  0  0  0  0  0
    8.8209   12.4936   23.5738 N   0  0  0  0  0  0  0  0  0  0  0  0
    8.4552   13.7673   23.8147 C   0  0  0  0  0  0  0  0  0  0  0  0
    9.2457   14.9568   23.2723 C   0  0  1  0  0  0  0  0  0  0  0  0
   10.6957   14.9488   23.7691 C   0  0  0  0  0  0  0  0  0  0  0  0
   11.6496   14.2728   22.8046 C   0  0  0  0  0  0  0  0  0  0  0  0
   11.4626   14.8360   21.4038 C   0  0  0  0  0  0  0  0  0  0  0  0
   10.0158   14.6699   20.9602 C   0  0  0  0  0  0  0  0  0  0  0  0
    9.0838   15.3225   21.8608 N   0  0  0  0  0  0  0  0  0  0  0  0
    7.5022   14.1133   24.7001 N   0  0  0  0  0  0  0  0  0  0  0  0
    6.8825   13.1472   25.3872 C   0  0  0  0  0  0  0  0  0  0  0  0
    7.2207   11.8171   25.2543 C   0  0  0  0  0  0  0  0  0  0  0  0
    6.5542   10.7566   26.0654 C   0  0  0  0  0  0  0  0  0  0  0  0
    5.6786   11.2762   27.2101 C   0  0  0  0  0  0  0  0  0  0  0  0
    4.9138   12.5312   26.8202 C   0  0  0  0  0  0  0  0  0  0  0  0
    5.8777   13.6251   26.3943 C   0  0  0  0  0  0  0  0  0  0  0  0
  1  2  2  0
  2  3  1  0
  4  3  1  6
  4  5  1  0
  5  6  1  0
  6  7  1  0
  7  8  1  0
  8  9  1  0
  3 10  2  0
 10 11  1  0
 11 12  2  0
 12 13  1  0
 13 14  1  0
 14 15  1  0
 15 16  1  0
 12  1  1  0
  9  4  1  0
 16 11  1  0
M  END
>  <inchikey>  (288) 
GTOHXODIXBECHG-UHFFFAOYSA-N

>  <energy_score>  (288) 
-28.844684

>  <subsites>  (288) 
1 - Active Site

>  <alias>  (288) 
C3256-P185

>  <tags>  (288) 
openbind_a71ev2a_c1_scaffolds,BulkDock Fragalysis export,openbind_a71ev2a_c1_knitwork_impure,fragmenstein_placed

>  <distance_score>  (288) 
0.945354

>  <placement_batch>  (288) 
openbind_a71ev2a_c1_knitwork_impure

>  <name>  (288) 
C3256-P185

>  <ref_mols>  (288) 
A3480a,A1068a

>  <smiles>  (288) 
c1nc([C@H]2CCCCN2)nc2c1CCCC2

>  <HIPPO Compound ID>  (288) 
10854

>  <HIPPO Pose ID>  (288) 
391797

>  <ref_pdb>  (288) 
A1779a

$$$$
C3266-P185
     RDKit          3D

 16 18  0  0  0  0  0  0  0  0999 V2000
    8.7792   11.6872   23.8265 C   0  0  0  0  0  0  0  0  0  0  0  0
    8.0350   10.9860   24.7187 N   0  0  0  0  0  0  0  0  0  0  0  0
    7.1116   11.7146   25.3859 C   0  0  0  0  0  0  0  0  0  0  0  0
    6.9450   13.0825   25.1579 C   0  0  0  0  0  0  0  0  0  0  0  0
    7.7212   13.7671   24.2794 N   0  0  0  0  0  0  0  0  0  0  0  0
    8.6405   13.0613   23.5967 C   0  0  0  0  0  0  0  0  0  0  0  0
    9.5258   13.7020   22.7213 N   0  0  0  0  0  0  0  0  0  0  0  0
   10.7166   14.1328   23.4571 C   0  0  0  0  0  0  0  0  0  0  0  0
   11.7855   14.5238   22.4507 C   0  0  0  0  0  0  0  0  0  0  0  0
   11.2978   15.5961   21.4888 C   0  0  0  0  0  0  0  0  0  0  0  0
    9.9498   15.2309   20.8727 C   0  0  0  0  0  0  0  0  0  0  0  0
    8.9328   14.7934   21.9331 C   0  0  0  0  0  0  0  0  0  0  0  0
    5.9659   13.8987   25.9531 C   0  0  0  0  0  0  0  0  0  0  0  0
    4.9205   13.0648   26.6885 C   0  0  0  0  0  0  0  0  0  0  0  0
    5.5651   11.8732   27.3814 C   0  0  0  0  0  0  0  0  0  0  0  0
    6.2478   10.9752   26.3602 C   0  0  0  0  0  0  0  0  0  0  0  0
  1  2  2  0
  2  3  1  0
  3  4  2  0
  4  5  1  0
  5  6  2  0
  6  7  1  0
  7  8  1  0
  8  9  1  0
  9 10  1  0
 10 11  1  0
 11 12  1  0
  4 13  1  0
 13 14  1  0
 14 15  1  0
 15 16  1  0
  6  1  1  0
 12  7  1  0
 16  3  1  0
M  END
>  <inchikey>  (289) 
JGHMMIULJFZDBA-UHFFFAOYSA-N

>  <energy_score>  (289) 
-23.655677

>  <subsites>  (289) 
1 - Active Site

>  <alias>  (289) 
C3266-P185

>  <tags>  (289) 
openbind_a71ev2a_c1_scaffolds,BulkDock Fragalysis export,openbind_a71ev2a_c1_knitwork_impure,fragmenstein_placed

>  <distance_score>  (289) 
0.949997

>  <placement_batch>  (289) 
openbind_a71ev2a_c1_knitwork_impure

>  <name>  (289) 
C3266-P185

>  <ref_mols>  (289) 
A3480a,A1068a

>  <smiles>  (289) 
c1nc2c(nc1N1CCCCC1)CCCC2

>  <HIPPO Compound ID>  (289) 
4781

>  <HIPPO Pose ID>  (289) 
391807

>  <ref_pdb>  (289) 
A1779a

$$$$
C3292-P185
     RDKit          3D

 16 18  0  0  0  0  0  0  0  0999 V2000
    8.0381   11.0252   24.5822 C   0  0  0  0  0  0  0  0  0  0  0  0
    8.8581   11.6352   23.7183 N   0  0  0  0  0  0  0  0  0  0  0  0
    8.7741   12.9735   23.6326 C   0  0  0  0  0  0  0  0  0  0  0  0
    9.7315   13.6274   22.6863 C   0  0  2  0  0  0  0  0  0  0  0  0
   10.8459   14.3756   23.4146 C   0  0  0  0  0  0  0  0  0  0  0  0
   11.8545   14.8137   22.3641 C   0  0  0  0  0  0  0  0  0  0  0  0
   11.2114   15.6156   21.2388 C   0  0  0  0  0  0  0  0  0  0  0  0
   10.0679   14.9342   20.6280 N   0  0  0  0  0  0  0  0  0  0  0  0
    9.0798   14.5535   21.6542 C   0  0  0  0  0  0  0  0  0  0  0  0
    7.9558   13.7250   24.3789 N   0  0  0  0  0  0  0  0  0  0  0  0
    7.1283   13.0806   25.2353 C   0  0  0  0  0  0  0  0  0  0  0  0
    7.1133   11.6951   25.3553 C   0  0  0  0  0  0  0  0  0  0  0  0
    6.2294   10.9315   26.2930 C   0  0  0  0  0  0  0  0  0  0  0  0
    5.1407   11.7184   27.0087 C   0  0  0  0  0  0  0  0  0  0  0  0
    5.7740   13.2747   27.6587 S   0  0  0  0  0  0  0  0  0  0  0  0
    6.2149   13.9727   26.0377 C   0  0  0  0  0  0  0  0  0  0  0  0
  1  2  2  0
  2  3  1  0
  4  3  1  1
  4  5  1  0
  5  6  1  0
  6  7  1  0
  7  8  1  0
  8  9  1  0
  3 10  2  0
 10 11  1  0
 11 12  2  0
 12 13  1  0
 13 14  1  0
 14 15  1  0
 15 16  1  0
 12  1  1  0
  9  4  1  0
 16 11  1  0
M  END
>  <inchikey>  (290) 
PUIPAYFHRQTOOJ-UHFFFAOYSA-N

>  <energy_score>  (290) 
-29.262394

>  <subsites>  (290) 
1 - Active Site

>  <alias>  (290) 
C3292-P185

>  <tags>  (290) 
openbind_a71ev2a_c1_scaffolds,BulkDock Fragalysis export,openbind_a71ev2a_c1_knitwork_impure,fragmenstein_placed

>  <distance_score>  (290) 
0.936388

>  <placement_batch>  (290) 
openbind_a71ev2a_c1_knitwork_impure

>  <name>  (290) 
C3292-P185

>  <ref_mols>  (290) 
A3480a,A1068a

>  <smiles>  (290) 
c1nc([C@@H]2CCCNC2)nc2c1CCSC2

>  <HIPPO Compound ID>  (290) 
7499

>  <HIPPO Pose ID>  (290) 
391823

>  <ref_pdb>  (290) 
A1779a

$$$$
C727-P384
     RDKit          3D

 12 13  0  0  0  0  0  0  0  0999 V2000
    5.8009   14.2683   23.5627 C   0  0  0  0  0  0  0  0  0  0  0  0
    6.9941   14.4044   22.8619 C   0  0  0  0  0  0  0  0  0  0  0  0
    8.1286   14.9266   23.4986 C   0  0  0  0  0  0  0  0  0  0  0  0
    9.3542   15.0351   22.8067 N   0  0  0  0  0  0  0  0  0  0  0  0
   10.5464   15.3879   23.5956 C   0  0  0  0  0  0  0  0  0  0  0  0
   11.8173   15.1846   22.7759 C   0  0  0  0  0  0  0  0  0  0  0  0
   11.7695   15.9844   21.4819 C   0  0  0  0  0  0  0  0  0  0  0  0
   10.5252   15.6091   20.6914 C   0  0  0  0  0  0  0  0  0  0  0  0
    9.2565   15.7788   21.5262 C   0  0  0  0  0  0  0  0  0  0  0  0
    7.9702   15.2791   24.8431 C   0  0  0  0  0  0  0  0  0  0  0  0
    6.7392   15.1076   25.4654 C   0  0  0  0  0  0  0  0  0  0  0  0
    5.6500   14.6003   24.8595 N   0  0  0  0  0  0  0  0  0  0  0  0
  1  2  2  0
  2  3  1  0
  3  4  1  0
  4  5  1  0
  5  6  1  0
  6  7  1  0
  7  8  1  0
  8  9  1  0
  3 10  2  0
 10 11  1  0
 11 12  2  0
 12  1  1  0
  9  4  1  0
M  END
>  <inchikey>  (291) 
JVDTWAMFTGWSKS-UHFFFAOYSA-N

>  <energy_score>  (291) 
-22.098114

>  <subsites>  (291) 
1 - Active Site

>  <alias>  (291) 
C727-P384

>  <tags>  (291) 
openbind_a71ev2a_c1_scaffolds,BulkDock Fragalysis export,openbind_a71ev2a_c1_knitwork_impure,fragmenstein_placed

>  <distance_score>  (291) 
0.931619

>  <placement_batch>  (291) 
openbind_a71ev2a_c1_knitwork_impure

>  <name>  (291) 
C727-P384

>  <ref_mols>  (291) 
A4509a,A3564a

>  <smiles>  (291) 
c1cc(N2CCCCC2)ccn1

>  <HIPPO Compound ID>  (291) 
795

>  <HIPPO Pose ID>  (291) 
391922

>  <ref_pdb>  (291) 
A1779a

$$$$
C11373-P23
     RDKit          3D

 19 21  0  0  0  0  0  0  0  0999 V2000
   22.7018   14.0070    1.5447 C   0  0  0  0  0  0  0  0  0  0  0  0
   22.0095   14.4318    2.8248 C   0  0  0  0  0  0  0  0  0  0  0  0
   20.5783   14.6144    2.6566 N   0  0  0  0  0  0  0  0  0  0  0  0
   19.7246   13.5831    2.8750 N   0  0  0  0  0  0  0  0  0  0  0  0
   18.5198   14.1333    2.7141 C   0  0  0  0  0  0  0  0  0  0  0  0
   18.5852   15.4977    2.3636 C   0  0  0  0  0  0  0  0  0  0  0  0
   17.6571   16.5122    2.0807 C   0  0  0  0  0  0  0  0  0  0  0  0
   18.1315   17.7899    1.7517 C   0  0  0  0  0  0  0  0  0  0  0  0
   19.5006   18.0618    1.7096 C   0  0  0  0  0  0  0  0  0  0  0  0
   19.9082   19.3502    1.3732 N   0  0  0  0  0  0  0  0  0  0  0  0
   21.3331   19.9585    1.2509 C   0  0  0  0  0  0  0  0  0  0  0  0
   22.3857   19.4505    1.3388 O   0  0  0  0  0  0  0  0  0  0  0  0
   21.1959   21.4876    0.9353 C   0  0  0  0  0  0  0  0  0  0  0  0
   22.1638   22.4421    1.7054 C   0  0  0  0  0  0  0  0  0  0  0  0
   22.3979   23.1500    0.3592 C   0  0  0  0  0  0  0  0  0  0  0  0
   22.8354   24.2337    0.0401 O   0  0  0  0  0  0  0  0  0  0  0  0
   21.8058   21.9628   -0.4205 C   0  0  0  0  0  0  0  0  0  0  0  0
   20.4349   17.0628    1.9972 C   0  0  0  0  0  0  0  0  0  0  0  0
   19.9446   15.7881    2.3203 C   0  0  0  0  0  0  0  0  0  0  0  0
  1  2  1  0
  2  3  1  0
  3  4  1  0
  4  5  2  0
  5  6  1  0
  6  7  2  0
  7  8  1  0
  8  9  2  0
  9 10  1  0
 10 11  1  0
 11 12  2  0
 11 13  1  0
 13 14  1  0
 14 15  1  0
 15 16  2  0
 15 17  1  0
  9 18  1  0
 18 19  2  0
 19  3  1  0
 19  6  1  0
 17 13  1  0
M  END
>  <inchikey>  (292) 
ZHEXKJJYJURADK-UHFFFAOYSA-N

>  <energy_score>  (292) 
-38.617569

>  <subsites>  (292) 
6 - A0486/A/147/1,5 - A3181/A/202/1

>  <alias>  (292) 
C11373-P23

>  <tags>  (292) 
openbind_a71ev2a_c1_scaffolds,BulkDock Fragalysis export,openbind_a71ev2a_c1_knitwork_impure,fragmenstein_placed

>  <distance_score>  (292) 
0.524078

>  <placement_batch>  (292) 
openbind_a71ev2a_c1_knitwork_impure

>  <name>  (292) 
C11373-P23

>  <ref_mols>  (292) 
A0486a,A0528b

>  <smiles>  (292) 
CCn1ncc2ccc(NC(=O)C3CC(=O)C3)cc21

>  <HIPPO Compound ID>  (292) 
1406

>  <HIPPO Pose ID>  (292) 
392080

>  <ref_pdb>  (292) 
A1779a

$$$$
C961-P617
     RDKit          3D

 18 20  0  0  0  0  0  0  0  0999 V2000
   26.3683   10.0130   -0.3195 O   0  0  0  0  0  0  0  0  0  0  0  0
   25.5834   10.7323   -0.8041 C   0  0  0  0  0  0  0  0  0  0  0  0
   24.4179   10.4345   -1.7925 N   0  0  0  0  0  0  0  0  0  0  0  0
   24.0609    9.2673   -2.4252 N   0  0  0  0  0  0  0  0  0  0  0  0
   23.5661    9.3292   -3.7004 C   0  0  0  0  0  0  0  0  0  0  0  0
   23.6094    8.3412   -4.5371 N   0  0  0  0  0  0  0  0  0  0  0  0
   23.0483    8.7578   -5.8362 C   0  0  0  0  0  0  0  0  0  0  0  0
   22.0445    9.8764   -5.6302 C   0  0  0  0  0  0  0  0  0  0  0  0
   22.7666   10.7922   -4.2624 S   0  0  0  0  0  0  0  0  0  0  0  0
   25.5868   12.2496   -0.5248 C   0  0  2  0  0  0  0  0  0  0  0  0
   26.7698   12.6409    0.3871 C   0  0  0  0  0  0  0  0  0  0  0  0
   26.4950   12.3108    1.8628 C   0  0  0  0  0  0  0  0  0  0  0  0
   25.2649   13.0589    2.3713 C   0  0  0  0  0  0  0  0  0  0  0  0
   24.1890   13.0493    1.4087 N   0  0  0  0  0  0  0  0  0  0  0  0
   22.9274   13.5183    1.5760 C   0  0  0  0  0  0  0  0  0  0  0  0
   22.2676   13.3940    0.4462 N   0  0  0  0  0  0  0  0  0  0  0  0
   23.1334   12.8707   -0.4930 N   0  0  0  0  0  0  0  0  0  0  0  0
   24.2990   12.6877    0.0932 C   0  0  0  0  0  0  0  0  0  0  0  0
  1  2  2  0
  2  3  1  0
  3  4  1  0
  4  5  1  0
  5  6  2  0
  6  7  1  0
  7  8  1  0
  8  9  1  0
 10  2  1  1
 10 11  1  0
 11 12  1  0
 12 13  1  0
 13 14  1  0
 14 15  1  0
 15 16  2  0
 16 17  1  0
 17 18  2  0
  9  5  1  0
 18 10  1  0
 18 14  1  0
M  END
>  <inchikey>  (293) 
UEVNEQDSWATJMO-UHFFFAOYSA-N

>  <energy_score>  (293) 
-10.203913

>  <subsites>  (293) 
6 - A0486/A/147/1,1 - Active Site

>  <alias>  (293) 
C961-P617

>  <tags>  (293) 
openbind_a71ev2a_c1_scaffolds,BulkDock Fragalysis export,openbind_a71ev2a_c1_knitwork_impure,fragmenstein_placed

>  <distance_score>  (293) 
0.643998

>  <placement_batch>  (293) 
openbind_a71ev2a_c1_knitwork_impure

>  <name>  (293) 
C961-P617

>  <ref_mols>  (293) 
A5425a,A0239a

>  <smiles>  (293) 
O=C(NNC1=NCCS1)[C@@H]1CCCn2cnnc21

>  <HIPPO Compound ID>  (293) 
6064

>  <HIPPO Pose ID>  (293) 
392503

>  <ref_pdb>  (293) 
A1779a

$$$$
C37900-P28
     RDKit          3D

 14 14  0  0  0  0  0  0  0  0999 V2000
    8.7618   16.9499   20.4649 C   0  0  0  0  0  0  0  0  0  0  0  0
    8.1546   15.8395   21.1932 C   0  0  0  0  0  0  0  0  0  0  0  0
    7.4242   15.0693   21.7598 C   0  0  0  0  0  0  0  0  0  0  0  0
    6.3320   14.3275   22.4083 C   0  0  0  0  0  0  0  0  0  0  0  0
    6.2225   14.4350   23.9254 C   0  0  0  0  0  0  0  0  0  0  0  0
    7.3343   13.9140   24.8226 C   0  0  0  0  0  0  0  0  0  0  0  0
    7.3952   14.2745   26.0120 O   0  0  0  0  0  0  0  0  0  0  0  0
    8.3521   12.8886   24.3270 C   0  0  2  0  0  0  0  0  0  0  0  0
    8.5736   12.7962   22.9478 O   0  0  0  0  0  0  0  0  0  0  0  0
    8.0429   11.5559   24.8497 C   0  0  0  0  0  0  0  0  0  0  0  0
    8.7108   10.3853   24.4605 C   0  0  0  0  0  0  0  0  0  0  0  0
    8.1918    9.3220   25.0559 N   0  0  0  0  0  0  0  0  0  0  0  0
    7.1705    9.8028   25.7843 N   0  0  0  0  0  0  0  0  0  0  0  0
    7.0857   11.1516   25.7547 C   0  0  0  0  0  0  0  0  0  0  0  0
  1  2  1  0
  2  3  3  0
  3  4  1  0
  4  5  1  0
  5  6  1  0
  6  7  2  0
  6  8  1  0
  8  9  1  6
  8 10  1  0
 10 11  1  0
 11 12  2  0
 12 13  1  0
 13 14  1  0
 14 10  2  0
M  END
>  <inchikey>  (294) 
CKUSNPGQZQJLGY-UHFFFAOYSA-N

>  <energy_score>  (294) 
-2.396351

>  <subsites>  (294) 
1 - Active Site

>  <alias>  (294) 
C37900-P28

>  <tags>  (294) 
openbind_a71ev2a_c1_scaffolds,BulkDock Fragalysis export,openbind_a71ev2a_c1_knitwork_impure,fragmenstein_placed

>  <distance_score>  (294) 
0.961602

>  <placement_batch>  (294) 
openbind_a71ev2a_c1_knitwork_impure

>  <name>  (294) 
C37900-P28

>  <ref_mols>  (294) 
A0556a,A0719a

>  <smiles>  (294) 
CC#CCCC(=O)[C@H](O)c1cn[nH]c1

>  <HIPPO Compound ID>  (294) 
3900

>  <HIPPO Pose ID>  (294) 
392979

>  <ref_pdb>  (294) 
A1779a

$$$$
C2408-P196
     RDKit          3D

 15 15  0  0  0  0  0  0  0  0999 V2000
    9.2322   11.7758   23.8529 C   0  0  0  0  0  0  0  0  0  0  0  0
    7.9709   11.6346   24.6782 C   0  0  0  0  0  0  0  0  0  0  0  0
    7.1479   12.9216   24.7898 C   0  0  1  0  0  0  0  0  0  0  0  0
    6.1309   12.7896   25.9309 C   0  0  0  0  0  0  0  0  0  0  0  0
    7.9875   14.1922   24.9972 C   0  0  0  0  0  0  0  0  0  0  0  0
    8.6447   14.3147   26.0406 O   0  0  0  0  0  0  0  0  0  0  0  0
    8.0062   15.3100   23.8949 C   0  0  0  0  0  0  0  0  0  0  0  0
    6.6685   15.3157   23.1266 C   0  0  0  0  0  0  0  0  0  0  0  0
    8.0351   16.6536   24.6603 C   0  0  0  0  0  0  0  0  0  0  0  0
    9.1760   15.0793   22.9862 N   0  0  0  0  0  0  0  0  0  0  0  0
   10.4887   15.2687   23.6391 C   0  0  0  0  0  0  0  0  0  0  0  0
   11.6369   14.8155   22.7342 C   0  0  0  0  0  0  0  0  0  0  0  0
   11.6348   15.5834   21.4217 C   0  0  0  0  0  0  0  0  0  0  0  0
   10.2643   15.4920   20.7704 C   0  0  0  0  0  0  0  0  0  0  0  0
    9.1404   15.8771   21.7379 C   0  0  0  0  0  0  0  0  0  0  0  0
  1  2  1  0
  2  3  1  0
  3  4  1  1
  3  5  1  0
  5  6  2  0
  5  7  1  0
  7  8  1  0
  7  9  1  0
  7 10  1  0
 10 11  1  0
 11 12  1  0
 12 13  1  0
 13 14  1  0
 14 15  1  0
 15 10  1  0
M  END
>  <inchikey>  (295) 
AQXSEQFJAMXZOT-UHFFFAOYSA-N

>  <energy_score>  (295) 
-54.29057

>  <subsites>  (295) 
1 - Active Site

>  <alias>  (295) 
C2408-P196

>  <tags>  (295) 
openbind_a71ev2a_c1_scaffolds,BulkDock Fragalysis export,openbind_a71ev2a_c1_knitwork_impure,fragmenstein_placed

>  <distance_score>  (295) 
0.927544

>  <placement_batch>  (295) 
openbind_a71ev2a_c1_knitwork_impure

>  <name>  (295) 
C2408-P196

>  <ref_mols>  (295) 
A1775a,A3616a

>  <smiles>  (295) 
CC[C@@H](C)C(=O)C(C)(C)N1CCCCC1

>  <HIPPO Compound ID>  (295) 
15654

>  <HIPPO Pose ID>  (295) 
393693

>  <ref_pdb>  (295) 
A1779a

$$$$
C3803-P358
     RDKit          3D

 11 12  0  0  0  0  0  0  0  0999 V2000
    7.1127   10.9448   25.2755 C   0  0  0  0  0  0  0  0  0  0  0  0
    7.4139    9.6580   25.0962 N   0  0  0  0  0  0  0  0  0  0  0  0
    8.4031    9.6918   24.1837 N   0  0  0  0  0  0  0  0  0  0  0  0
    8.7165   10.9595   23.7829 C   0  0  0  0  0  0  0  0  0  0  0  0
    7.8826   11.8195   24.4698 C   0  0  0  0  0  0  0  0  0  0  0  0
    7.7250   13.3089   24.3961 C   0  0  2  0  0  0  0  0  0  0  0  0
    7.9929   13.9386   23.0224 C   0  0  0  0  0  0  0  0  0  0  0  0
    9.4745   14.1056   22.6914 C   0  0  0  0  0  0  0  0  0  0  0  0
   10.2300   14.7332   23.8486 C   0  0  0  0  0  0  0  0  0  0  0  0
    9.9351   14.0231   25.1543 C   0  0  0  0  0  0  0  0  0  0  0  0
    8.5048   13.9626   25.4604 N   0  0  0  0  0  0  0  0  0  0  0  0
  1  2  2  0
  2  3  1  0
  3  4  1  0
  4  5  2  0
  6  5  1  6
  6  7  1  0
  7  8  1  0
  8  9  1  0
  9 10  1  0
 10 11  1  0
  5  1  1  0
 11  6  1  0
M  END
>  <inchikey>  (296) 
FDTBFBNGCRTYIH-UHFFFAOYSA-N

>  <energy_score>  (296) 
-19.396031

>  <subsites>  (296) 
1 - Active Site

>  <alias>  (296) 
C3803-P358

>  <tags>  (296) 
openbind_a71ev2a_c1_scaffolds,BulkDock Fragalysis export,openbind_a71ev2a_c1_knitwork_impure,fragmenstein_placed

>  <distance_score>  (296) 
0.953601

>  <placement_batch>  (296) 
openbind_a71ev2a_c1_knitwork_impure

>  <name>  (296) 
C3803-P358

>  <ref_mols>  (296) 
A0556a,A4421a

>  <smiles>  (296) 
c1n[nH]cc1[C@@H]1CCCCN1

>  <HIPPO Compound ID>  (296) 
10683

>  <HIPPO Pose ID>  (296) 
393719

>  <ref_pdb>  (296) 
A1779a

$$$$
C3806-P358
     RDKit          3D

 11 12  0  0  0  0  0  0  0  0999 V2000
    7.0781   11.0427   25.2840 C   0  0  0  0  0  0  0  0  0  0  0  0
    7.3611    9.7414   25.2036 N   0  0  0  0  0  0  0  0  0  0  0  0
    8.3328    9.6879   24.2732 N   0  0  0  0  0  0  0  0  0  0  0  0
    8.6506   10.9131   23.7658 C   0  0  0  0  0  0  0  0  0  0  0  0
    7.8517   11.8397   24.4055 C   0  0  0  0  0  0  0  0  0  0  0  0
    7.7294   13.3288   24.1939 C   0  0  2  0  0  0  0  0  0  0  0  0
    8.5145   13.8578   22.9871 C   0  0  0  0  0  0  0  0  0  0  0  0
   10.0165   13.9252   23.2612 C   0  0  0  0  0  0  0  0  0  0  0  0
   10.3152   14.6928   24.5395 C   0  0  0  0  0  0  0  0  0  0  0  0
    9.5540   14.2194   25.6918 N   0  0  0  0  0  0  0  0  0  0  0  0
    8.1100   14.1744   25.4242 C   0  0  0  0  0  0  0  0  0  0  0  0
  1  2  2  0
  2  3  1  0
  3  4  1  0
  4  5  2  0
  6  5  1  1
  6  7  1  0
  7  8  1  0
  8  9  1  0
  9 10  1  0
 10 11  1  0
  5  1  1  0
 11  6  1  0
M  END
>  <inchikey>  (297) 
NPDDPCJWLVZMCA-UHFFFAOYSA-N

>  <energy_score>  (297) 
-20.791108

>  <subsites>  (297) 
1 - Active Site

>  <alias>  (297) 
C3806-P358

>  <tags>  (297) 
openbind_a71ev2a_c1_scaffolds,BulkDock Fragalysis export,openbind_a71ev2a_c1_knitwork_impure,fragmenstein_placed

>  <distance_score>  (297) 
0.905348

>  <placement_batch>  (297) 
openbind_a71ev2a_c1_knitwork_impure

>  <name>  (297) 
C3806-P358

>  <ref_mols>  (297) 
A0556a,A4421a

>  <smiles>  (297) 
c1n[nH]cc1[C@@H]1CCCNC1

>  <HIPPO Compound ID>  (297) 
5363

>  <HIPPO Pose ID>  (297) 
393731

>  <ref_pdb>  (297) 
A1779a

$$$$
C4761-P358
     RDKit          3D

 11 12  0  0  0  0  0  0  0  0999 V2000
    7.1642   10.7643   25.0661 C   0  0  0  0  0  0  0  0  0  0  0  0
    7.5924    9.5098   24.9427 N   0  0  0  0  0  0  0  0  0  0  0  0
    8.5987    9.6024   24.0512 N   0  0  0  0  0  0  0  0  0  0  0  0
    8.8155   10.8795   23.6225 C   0  0  0  0  0  0  0  0  0  0  0  0
    7.8823   11.6758   24.2558 C   0  0  0  0  0  0  0  0  0  0  0  0
    7.6810   13.1570   24.1064 C   0  0  2  0  0  0  0  0  0  0  0  0
    7.3510   13.8537   25.4474 C   0  0  0  0  0  0  0  0  0  0  0  0
    5.5714   14.0049   25.8008 S   0  0  0  0  0  0  0  0  0  0  0  0
    5.0995   14.8719   24.2516 C   0  0  0  0  0  0  0  0  0  0  0  0
    6.1209   14.7245   23.1049 C   0  0  0  0  0  0  0  0  0  0  0  0
    6.6961   13.3697   23.0189 N   0  0  0  0  0  0  0  0  0  0  0  0
  1  2  2  0
  2  3  1  0
  3  4  1  0
  4  5  2  0
  6  5  1  1
  6  7  1  0
  7  8  1  0
  8  9  1  0
  9 10  1  0
 10 11  1  0
  5  1  1  0
 11  6  1  0
M  END
>  <inchikey>  (298) 
TVNFUCRFFLGUGI-UHFFFAOYSA-N

>  <energy_score>  (298) 
-33.480294

>  <subsites>  (298) 
1 - Active Site

>  <alias>  (298) 
C4761-P358

>  <tags>  (298) 
openbind_a71ev2a_c1_scaffolds,BulkDock Fragalysis export,openbind_a71ev2a_c1_knitwork_impure,fragmenstein_placed

>  <distance_score>  (298) 
0.934753

>  <placement_batch>  (298) 
openbind_a71ev2a_c1_knitwork_impure

>  <name>  (298) 
C4761-P358

>  <ref_mols>  (298) 
A0556a,A4421a

>  <smiles>  (298) 
c1n[nH]cc1[C@@H]1CSCCN1

>  <HIPPO Compound ID>  (298) 
7819

>  <HIPPO Pose ID>  (298) 
393732

>  <ref_pdb>  (298) 
A1779a

$$$$
C715-P235
     RDKit          3D

 12 13  0  0  0  0  0  0  0  0999 V2000
    7.4354   12.1978   25.3743 C   0  0  0  0  0  0  0  0  0  0  0  0
    7.7809   10.9112   25.0051 C   0  0  0  0  0  0  0  0  0  0  0  0
    8.7611   10.6292   24.1255 N   0  0  0  0  0  0  0  0  0  0  0  0
    9.4250   11.6907   23.5977 C   0  0  0  0  0  0  0  0  0  0  0  0
    9.1810   13.0278   23.9120 C   0  0  0  0  0  0  0  0  0  0  0  0
    9.8845   14.1344   23.4008 N   0  0  0  0  0  0  0  0  0  0  0  0
    9.5785   14.4115   21.9818 C   0  0  0  0  0  0  0  0  0  0  0  0
   10.1977   15.7467   21.5617 C   0  0  0  0  0  0  0  0  0  0  0  0
   11.6964   15.7838   21.8544 C   0  0  0  0  0  0  0  0  0  0  0  0
   11.9629   15.4168   23.3119 C   0  0  0  0  0  0  0  0  0  0  0  0
   11.3312   14.0707   23.6624 C   0  0  0  0  0  0  0  0  0  0  0  0
    8.1468   13.2603   24.8188 C   0  0  0  0  0  0  0  0  0  0  0  0
  1  2  2  0
  2  3  1  0
  3  4  2  0
  4  5  1  0
  5  6  1  0
  6  7  1  0
  7  8  1  0
  8  9  1  0
  9 10  1  0
 10 11  1  0
  5 12  2  0
 12  1  1  0
 11  6  1  0
M  END
>  <inchikey>  (299) 
IERXOVUPWKOWSK-UHFFFAOYSA-N

>  <energy_score>  (299) 
-16.254267

>  <subsites>  (299) 
1 - Active Site

>  <alias>  (299) 
C715-P235

>  <tags>  (299) 
openbind_a71ev2a_c1_scaffolds,BulkDock Fragalysis export,openbind_a71ev2a_c1_knitwork_impure,fragmenstein_placed

>  <distance_score>  (299) 
0.944794

>  <placement_batch>  (299) 
openbind_a71ev2a_c1_knitwork_impure

>  <name>  (299) 
C715-P235

>  <ref_mols>  (299) 
A3623a,A3897a

>  <smiles>  (299) 
c1cncc(N2CCCCC2)c1

>  <HIPPO Compound ID>  (299) 
10847

>  <HIPPO Pose ID>  (299) 
393937

>  <ref_pdb>  (299) 
A1779a

$$$$
C688-P168
     RDKit          3D

 27 30  0  0  0  0  0  0  0  0999 V2000
   18.7759   19.0131   18.2842 O   0  0  0  0  0  0  0  0  0  0  0  0
   18.9133   19.4889   19.3982 C   0  0  0  0  0  0  0  0  0  0  0  0
   17.8992   20.3311   20.1264 C   0  0  0  0  0  0  0  0  0  0  0  0
   18.5268   20.5145   21.5092 C   0  0  0  0  0  0  0  0  0  0  0  0
   19.4734   19.3321   21.6000 C   0  0  2  0  0  0  0  0  0  0  0  0
   20.5087   19.2943   22.7252 C   0  0  0  0  0  0  0  0  0  0  0  0
   21.3194   20.4736   22.9771 N   0  0  0  0  0  0  0  0  0  0  0  0
   21.4725   20.9732   24.3311 C   0  0  0  0  0  0  0  0  0  0  0  0
   20.2318   21.6670   24.8163 C   0  0  0  0  0  0  0  0  0  0  0  0
   19.3370   21.0515   25.6964 C   0  0  0  0  0  0  0  0  0  0  0  0
   18.1756   21.7178   26.0727 C   0  0  0  0  0  0  0  0  0  0  0  0
   17.9526   22.9880   25.5678 C   0  0  0  0  0  0  0  0  0  0  0  0
   18.8023   23.6230   24.7349 N   0  0  0  0  0  0  0  0  0  0  0  0
   19.9080   22.9425   24.3598 C   0  0  0  0  0  0  0  0  0  0  0  0
   21.9607   21.1459   21.9468 C   0  0  0  0  0  0  0  0  0  0  0  0
   21.4116   22.0607   21.3465 O   0  0  0  0  0  0  0  0  0  0  0  0
   23.3126   20.5317   21.6419 C   0  0  0  0  0  0  0  0  0  0  0  0
   23.9664   21.0067   20.3994 C   0  0  0  0  0  0  0  0  0  0  0  0
   23.2769   21.2285   19.2743 N   0  0  0  0  0  0  0  0  0  0  0  0
   24.2117   21.6112   18.3896 N   0  0  0  0  0  0  0  0  0  0  0  0
   25.4885   21.5762   18.8803 C   0  0  0  0  0  0  0  0  0  0  0  0
   26.7208   21.8243   18.2725 C   0  0  0  0  0  0  0  0  0  0  0  0
   27.8648   21.6008   19.0449 C   0  0  0  0  0  0  0  0  0  0  0  0
   27.7726   21.1620   20.3658 C   0  0  0  0  0  0  0  0  0  0  0  0
   26.5260   20.9424   20.9612 C   0  0  0  0  0  0  0  0  0  0  0  0
   25.3645   21.1533   20.1962 C   0  0  0  0  0  0  0  0  0  0  0  0
   19.9631   19.2114   20.2574 N   0  0  0  0  0  0  0  0  0  0  0  0
  1  2  2  0
  2  3  1  0
  3  4  1  0
  4  5  1  0
  5  6  1  1
  6  7  1  0
  7  8  1  0
  8  9  1  0
  9 10  2  0
 10 11  1  0
 11 12  2  0
 12 13  1  0
 13 14  2  0
  7 15  1  0
 15 16  2  0
 15 17  1  0
 17 18  1  0
 18 19  2  0
 19 20  1  0
 20 21  1  0
 21 22  2  0
 22 23  1  0
 23 24  2  0
 24 25  1  0
 25 26  2  0
  5 27  1  0
 27  2  1  0
 14  9  1  0
 26 18  1  0
 26 21  1  0
M  END
>  <inchikey>  (300) 
ANSXQAALPGNGJP-UHFFFAOYSA-N

>  <energy_score>  (300) 
-4.094908

>  <subsites>  (300) 
1 - Active Site,5 - A3181/A/202/1

>  <alias>  (300) 
C688-P168

>  <tags>  (300) 
openbind_a71ev2a_c1_scaffolds,BulkDock Fragalysis export,openbind_a71ev2a_c1_knitwork_impure,fragmenstein_placed

>  <distance_score>  (300) 
0.643083

>  <placement_batch>  (300) 
openbind_a71ev2a_c1_knitwork_impure

>  <name>  (300) 
C688-P168

>  <ref_mols>  (300) 
A3306a,A3181b

>  <smiles>  (300) 
O=C1CC[C@H](CN(Cc2cccnc2)C(=O)Cc2n[nH]c3ccccc23)N1

>  <HIPPO Compound ID>  (300) 
6286

>  <HIPPO Pose ID>  (300) 
394403

>  <ref_pdb>  (300) 
A1779a

$$$$
C10642-P176
     RDKit          3D

 14 14  0  0  0  0  0  0  0  0999 V2000
    7.8908   11.8229   25.7827 F   0  0  0  0  0  0  0  0  0  0  0  0
    8.2741   11.1680   24.6628 C   0  0  0  0  0  0  0  0  0  0  0  0
    7.1916   10.5202   24.1902 F   0  0  0  0  0  0  0  0  0  0  0  0
    9.1659   10.2191   25.0095 F   0  0  0  0  0  0  0  0  0  0  0  0
    8.8550   12.1100   23.6519 C   0  0  0  0  0  0  0  0  0  0  0  0
   10.0463   12.8537   24.2260 C   0  0  0  0  0  0  0  0  0  0  0  0
   10.3947   13.9022   23.3291 O   0  0  0  0  0  0  0  0  0  0  0  0
   11.6183   13.6297   22.7142 N   0  0  0  0  0  0  0  0  0  0  0  0
   11.6953   14.1620   21.5271 C   0  0  0  0  0  0  0  0  0  0  0  0
   10.7106   14.9969   20.8748 C   0  0  0  0  0  0  0  0  0  0  0  0
   10.6321   15.2261   19.5186 C   0  0  0  0  0  0  0  0  0  0  0  0
    9.6667   16.1624   19.3008 O   0  0  0  0  0  0  0  0  0  0  0  0
    9.2049   16.4547   20.5465 C   0  0  0  0  0  0  0  0  0  0  0  0
    9.7484   15.7532   21.5100 N   0  0  0  0  0  0  0  0  0  0  0  0
  1  2  1  0
  2  3  1  0
  2  4  1  0
  2  5  1  0
  5  6  1  0
  6  7  1  0
  7  8  1  0
  8  9  2  3
  9 10  1  0
 10 11  2  0
 11 12  1  0
 12 13  1  0
 13 14  2  0
 14 10  1  0
M  END
>  <inchikey>  (301) 
FXORYDYYSQMRDK-UHFFFAOYSA-N

>  <energy_score>  (301) 
-18.636665

>  <subsites>  (301) 
1 - Active Site

>  <alias>  (301) 
C10642-P176

>  <tags>  (301) 
openbind_a71ev2a_c1_scaffolds,BulkDock Fragalysis export,openbind_a71ev2a_c1_knitwork_impure,fragmenstein_placed

>  <distance_score>  (301) 
0.820231

>  <placement_batch>  (301) 
openbind_a71ev2a_c1_knitwork_impure

>  <name>  (301) 
C10642-P176

>  <ref_mols>  (301) 
A3392a,A1775a

>  <smiles>  (301) 
FC(F)(F)CCON=Cc1cocn1

>  <HIPPO Compound ID>  (301) 
11204

>  <HIPPO Pose ID>  (301) 
394426

>  <ref_pdb>  (301) 
A1779a

$$$$
C11338-P54
     RDKit          3D

 17 19  0  0  0  0  0  0  0  0999 V2000
   16.8812   -3.8175   21.2600 O   0  0  0  0  0  0  0  0  0  0  0  0
   17.8043   -3.9954   20.4706 C   0  0  0  0  0  0  0  0  0  0  0  0
   19.1674   -4.3934   20.9665 C   0  0  0  0  0  0  0  0  0  0  0  0
   20.1392   -3.2323   20.9683 C   0  0  0  0  0  0  0  0  0  0  0  0
   20.6332   -2.9082   19.5664 C   0  0  0  0  0  0  0  0  0  0  0  0
   19.5776   -2.2885   18.6627 C   0  0  0  0  0  0  0  0  0  0  0  0
   18.4012   -3.1203   18.2434 C   0  0  0  0  0  0  0  0  0  0  0  0
   17.5850   -3.8716   19.0021 C   0  0  0  0  0  0  0  0  0  0  0  0
   16.3894   -4.4637   18.3882 C   0  0  0  0  0  0  0  0  0  0  0  0
   15.2419   -3.7071   18.1036 C   0  0  0  0  0  0  0  0  0  0  0  0
   14.1200   -4.2969   17.5225 C   0  0  0  0  0  0  0  0  0  0  0  0
   14.0939   -5.6593   17.2188 C   0  0  0  0  0  0  0  0  0  0  0  0
   15.2476   -6.3948   17.4990 C   0  0  0  0  0  0  0  0  0  0  0  0
   15.5394   -7.7203   17.3239 N   0  0  0  0  0  0  0  0  0  0  0  0
   16.7984   -8.0552   17.6558 N   0  0  0  0  0  0  0  0  0  0  0  0
   17.3102   -6.9098   18.1139 C   0  0  0  0  0  0  0  0  0  0  0  0
   16.3925   -5.8342   18.0594 C   0  0  0  0  0  0  0  0  0  0  0  0
  1  2  2  0
  2  3  1  0
  3  4  1  0
  4  5  1  0
  5  6  1  0
  6  7  1  0
  7  8  2  0
  8  9  1  0
  9 10  2  0
 10 11  1  0
 11 12  2  0
 12 13  1  0
 13 14  1  0
 14 15  1  0
 15 16  2  0
 16 17  1  0
  8  2  1  0
 17  9  1  0
 17 13  2  0
M  END
>  <inchikey>  (302) 
LCCXSDXPWBGFAI-UHFFFAOYSA-N

>  <energy_score>  (302) 
-32.932365

>  <subsites>  (302) 
2 - A3977/A/202/1

>  <alias>  (302) 
C11338-P54

>  <tags>  (302) 
openbind_a71ev2a_c1_scaffolds,BulkDock Fragalysis export,openbind_a71ev2a_c1_knitwork_impure,fragmenstein_placed

>  <distance_score>  (302) 
0.9647

>  <placement_batch>  (302) 
openbind_a71ev2a_c1_knitwork_impure

>  <name>  (302) 
C11338-P54

>  <ref_mols>  (302) 
A0497a,A0341a

>  <smiles>  (302) 
O=C1CCCCC=C1c1cccc2[nH]ncc12

>  <HIPPO Compound ID>  (302) 
11605

>  <HIPPO Pose ID>  (302) 
395528

>  <ref_pdb>  (302) 
A1779a

$$$$
C1791-P191
     RDKit          3D

 15 17  0  0  0  0  0  0  0  0999 V2000
    7.1869   10.6264   25.3498 C   0  0  0  0  0  0  0  0  0  0  0  0
    7.8232    9.6865   24.3041 C   0  0  0  0  0  0  0  0  0  0  0  0
    9.1423   10.1202   23.6556 C   0  0  0  0  0  0  0  0  0  0  0  0
    9.2246   11.5802   23.6882 C   0  0  0  0  0  0  0  0  0  0  0  0
   10.2044   12.2338   23.0432 O   0  0  0  0  0  0  0  0  0  0  0  0
    9.9487   13.5455   23.3228 C   0  0  0  0  0  0  0  0  0  0  0  0
   10.8445   14.5062   22.6479 C   0  0  0  0  0  0  0  0  0  0  0  0
   11.3893   15.5323   23.6321 C   0  0  0  0  0  0  0  0  0  0  0  0
   12.2802   16.5134   22.8943 C   0  0  0  0  0  0  0  0  0  0  0  0
   11.5757   17.1275   21.7876 N   0  0  0  0  0  0  0  0  0  0  0  0
   11.0899   16.1664   20.8049 C   0  0  0  0  0  0  0  0  0  0  0  0
   10.1363   15.1908   21.4786 C   0  0  0  0  0  0  0  0  0  0  0  0
    8.9248   13.7504   24.1346 N   0  0  0  0  0  0  0  0  0  0  0  0
    8.4280   12.4935   24.3180 C   0  0  0  0  0  0  0  0  0  0  0  0
    7.1957   12.1318   25.0298 C   0  0  0  0  0  0  0  0  0  0  0  0
  1  2  1  0
  2  3  1  0
  3  4  1  0
  4  5  1  0
  5  6  1  0
  6  7  1  0
  7  8  1  0
  8  9  1  0
  9 10  1  0
 10 11  1  0
 11 12  1  0
  6 13  2  0
 13 14  1  0
 14 15  1  0
 15  1  1  0
 14  4  2  0
 12  7  1  0
M  END
>  <inchikey>  (303) 
FFAXPTHKURGIBP-UHFFFAOYSA-N

>  <energy_score>  (303) 
-32.849301

>  <subsites>  (303) 
1 - Active Site

>  <alias>  (303) 
C1791-P191

>  <tags>  (303) 
openbind_a71ev2a_c1_scaffolds,BulkDock Fragalysis export,openbind_a71ev2a_c1_knitwork_impure,fragmenstein_placed

>  <distance_score>  (303) 
0.776668

>  <placement_batch>  (303) 
openbind_a71ev2a_c1_knitwork_impure

>  <name>  (303) 
C1791-P191

>  <ref_mols>  (303) 
A3623a,A3509b

>  <smiles>  (303) 
C1CCc2oc(C3CCNCC3)nc2C1

>  <HIPPO Compound ID>  (303) 
7529

>  <HIPPO Pose ID>  (303) 
395654

>  <ref_pdb>  (303) 
A1779a

$$$$
C1795-P191
     RDKit          3D

 15 17  0  0  0  0  0  0  0  0999 V2000
   12.3343   16.3558   21.5647 C   0  0  0  0  0  0  0  0  0  0  0  0
   12.1833   16.2157   23.0749 C   0  0  0  0  0  0  0  0  0  0  0  0
   10.7113   16.2146   23.4683 C   0  0  0  0  0  0  0  0  0  0  0  0
    9.9950   15.1967   22.7307 N   0  0  0  0  0  0  0  0  0  0  0  0
    9.5368   14.0900   23.3539 C   0  0  0  0  0  0  0  0  0  0  0  0
    9.8670   12.8566   23.0441 N   0  0  0  0  0  0  0  0  0  0  0  0
    9.0817   11.9608   23.7256 C   0  0  0  0  0  0  0  0  0  0  0  0
    8.1349   12.5316   24.5402 C   0  0  0  0  0  0  0  0  0  0  0  0
    8.3205   14.2164   24.5815 S   0  0  0  0  0  0  0  0  0  0  0  0
    7.0484   11.8269   25.2451 C   0  0  0  0  0  0  0  0  0  0  0  0
    7.2694   10.3168   25.2460 C   0  0  0  0  0  0  0  0  0  0  0  0
    8.0610    9.7047   24.0838 C   0  0  0  0  0  0  0  0  0  0  0  0
    9.2430   10.4991   23.5297 C   0  0  0  0  0  0  0  0  0  0  0  0
   10.1343   15.1949   21.2766 C   0  0  0  0  0  0  0  0  0  0  0  0
   11.5996   15.2192   20.8618 C   0  0  0  0  0  0  0  0  0  0  0  0
  1  2  1  0
  2  3  1  0
  3  4  1  0
  4  5  1  0
  5  6  2  0
  6  7  1  0
  7  8  2  0
  8  9  1  0
  8 10  1  0
 10 11  1  0
 11 12  1  0
 12 13  1  0
  4 14  1  0
 14 15  1  0
 15  1  1  0
  9  5  1  0
 13  7  1  0
M  END
>  <inchikey>  (304) 
AYNLZEGPVWLBPE-UHFFFAOYSA-N

>  <energy_score>  (304) 
-74.641627

>  <subsites>  (304) 
1 - Active Site

>  <alias>  (304) 
C1795-P191

>  <tags>  (304) 
openbind_a71ev2a_c1_scaffolds,BulkDock Fragalysis export,openbind_a71ev2a_c1_knitwork_impure,fragmenstein_placed

>  <distance_score>  (304) 
0.77859

>  <placement_batch>  (304) 
openbind_a71ev2a_c1_knitwork_impure

>  <name>  (304) 
C1795-P191

>  <ref_mols>  (304) 
A3623a,A3509b

>  <smiles>  (304) 
C1CCN(c2nc3c(s2)CCCC3)CC1

>  <HIPPO Compound ID>  (304) 
23812

>  <HIPPO Pose ID>  (304) 
395655

>  <ref_pdb>  (304) 
A1779a

$$$$
C1805-P191
     RDKit          3D

 15 17  0  0  0  0  0  0  0  0999 V2000
   12.4398   15.6613   23.0514 C   0  0  0  0  0  0  0  0  0  0  0  0
   11.1594   16.1726   23.6842 C   0  0  0  0  0  0  0  0  0  0  0  0
    9.9009   15.7327   22.9315 C   0  0  0  0  0  0  0  0  0  0  0  0
    9.3983   14.4024   23.4348 C   0  0  0  0  0  0  0  0  0  0  0  0
    9.8626   13.2093   23.1272 N   0  0  0  0  0  0  0  0  0  0  0  0
    9.0776   12.2248   23.7059 C   0  0  0  0  0  0  0  0  0  0  0  0
    8.0568   12.6960   24.4992 C   0  0  0  0  0  0  0  0  0  0  0  0
    8.0703   14.3998   24.5308 S   0  0  0  0  0  0  0  0  0  0  0  0
    7.0121   11.9596   25.2317 C   0  0  0  0  0  0  0  0  0  0  0  0
    7.2711   10.1778   25.3401 S   0  0  0  0  0  0  0  0  0  0  0  0
    8.3158    9.8079   23.8936 C   0  0  0  0  0  0  0  0  0  0  0  0
    9.3851   10.7946   23.4502 C   0  0  0  0  0  0  0  0  0  0  0  0
   10.0543   15.7727   21.4054 C   0  0  0  0  0  0  0  0  0  0  0  0
   11.4268   15.3287   20.9173 C   0  0  0  0  0  0  0  0  0  0  0  0
   12.4774   16.0405   21.6465 N   0  0  0  0  0  0  0  0  0  0  0  0
  1  2  1  0
  2  3  1  0
  3  4  1  0
  4  5  2  0
  5  6  1  0
  6  7  2  0
  7  8  1  0
  7  9  1  0
  9 10  1  0
 10 11  1  0
 11 12  1  0
  3 13  1  0
 13 14  1  0
 14 15  1  0
 15  1  1  0
  8  4  1  0
 12  6  1  0
M  END
>  <inchikey>  (305) 
KVNQCSIGNRPHHM-UHFFFAOYSA-N

>  <energy_score>  (305) 
-77.744258

>  <subsites>  (305) 
1 - Active Site

>  <alias>  (305) 
C1805-P191

>  <tags>  (305) 
openbind_a71ev2a_c1_scaffolds,BulkDock Fragalysis export,openbind_a71ev2a_c1_knitwork_impure,fragmenstein_placed

>  <distance_score>  (305) 
0.94834

>  <placement_batch>  (305) 
openbind_a71ev2a_c1_knitwork_impure

>  <name>  (305) 
C1805-P191

>  <ref_mols>  (305) 
A3623a,A3509b

>  <smiles>  (305) 
C1CC(c2nc3c(s2)CSCC3)CCN1

>  <HIPPO Compound ID>  (305) 
6258

>  <HIPPO Pose ID>  (305) 
395657

>  <ref_pdb>  (305) 
A1779a

$$$$
C1814-P191
     RDKit          3D

 16 18  0  0  0  0  0  0  0  0999 V2000
    8.2405   14.3681   24.6417 C   0  0  0  0  0  0  0  0  0  0  0  0
    7.6619   13.2715   25.1708 N   0  0  0  0  0  0  0  0  0  0  0  0
    8.0221   12.0782   24.6549 C   0  0  0  0  0  0  0  0  0  0  0  0
    8.9897   11.9379   23.6686 C   0  0  0  0  0  0  0  0  0  0  0  0
    9.5794   13.1040   23.1529 C   0  0  0  0  0  0  0  0  0  0  0  0
    9.1914   14.3565   23.6253 C   0  0  0  0  0  0  0  0  0  0  0  0
    9.7208   15.6780   23.1030 C   0  0  1  0  0  0  0  0  0  0  0  0
   11.0655   16.0642   23.7405 C   0  0  0  0  0  0  0  0  0  0  0  0
   12.2740   15.6292   22.9224 C   0  0  0  0  0  0  0  0  0  0  0  0
   12.1171   16.0112   21.4555 C   0  0  0  0  0  0  0  0  0  0  0  0
   10.9365   15.3551   20.9091 N   0  0  0  0  0  0  0  0  0  0  0  0
    9.7176   15.8242   21.5641 C   0  0  0  0  0  0  0  0  0  0  0  0
    9.4711   10.5898   23.2267 C   0  0  0  0  0  0  0  0  0  0  0  0
    8.7117    9.3631   23.7017 C   0  0  0  0  0  0  0  0  0  0  0  0
    7.4479    9.6349   24.4815 C   0  0  0  0  0  0  0  0  0  0  0  0
    7.3895   10.8947   25.3006 C   0  0  0  0  0  0  0  0  0  0  0  0
  1  2  2  0
  2  3  1  0
  3  4  2  0
  4  5  1  0
  5  6  2  0
  7  6  1  6
  7  8  1  0
  8  9  1  0
  9 10  1  0
 10 11  1  0
 11 12  1  0
  4 13  1  0
 13 14  1  0
 14 15  1  0
 15 16  1  0
  6  1  1  0
 12  7  1  0
 16  3  1  0
M  END
>  <inchikey>  (306) 
KOQQXKYWQMMEBA-UHFFFAOYSA-N

>  <energy_score>  (306) 
-26.820697

>  <subsites>  (306) 
1 - Active Site

>  <alias>  (306) 
C1814-P191

>  <tags>  (306) 
openbind_a71ev2a_c1_scaffolds,BulkDock Fragalysis export,openbind_a71ev2a_c1_knitwork_impure,fragmenstein_placed

>  <distance_score>  (306) 
0.928082

>  <placement_batch>  (306) 
openbind_a71ev2a_c1_knitwork_impure

>  <name>  (306) 
C1814-P191

>  <ref_mols>  (306) 
A3623a,A3509b

>  <smiles>  (306) 
c1nc2c(cc1[C@H]1CCCNC1)CCCC2

>  <HIPPO Compound ID>  (306) 
39872

>  <HIPPO Pose ID>  (306) 
395659

>  <ref_pdb>  (306) 
A1779a

$$$$
C3508-P195
     RDKit          3D

 24 26  0  0  0  0  0  0  0  0999 V2000
    4.1167   11.4714    0.4276 C   0  0  0  0  0  0  0  0  0  0  0  0
    3.9533   12.9964    0.5532 C   0  0  0  0  0  0  0  0  0  0  0  0
    3.2142   13.2995    1.8864 C   0  0  0  0  0  0  0  0  0  0  0  0
    3.0540   13.4909   -0.5987 C   0  0  0  0  0  0  0  0  0  0  0  0
    5.3316   13.7266    0.4960 C   0  0  2  0  0  0  0  0  0  0  0  0
    6.2188   13.3732   -0.7154 C   0  0  0  0  0  0  0  0  0  0  0  0
    7.3496   14.2618   -0.8616 N   0  0  0  0  0  0  0  0  0  0  0  0
    8.2043   14.6020   -2.1017 C   0  0  0  0  0  0  0  0  0  0  0  0
    8.0822   14.2771   -3.2187 O   0  0  0  0  0  0  0  0  0  0  0  0
    9.3902   15.5275   -1.6851 C   0  0  0  0  0  0  0  0  0  0  0  0
   10.3693   15.0643   -0.5753 C   0  0  0  0  0  0  0  0  0  0  0  0
   10.4881   16.5388   -0.1455 C   0  0  0  0  0  0  0  0  0  0  0  0
    9.1312   16.7943   -0.8297 C   0  0  0  0  0  0  0  0  0  0  0  0
    6.0176   13.4598    1.7393 N   0  0  0  0  0  0  0  0  0  0  0  0
    7.2212   14.1452    2.3734 C   0  0  0  0  0  0  0  0  0  0  0  0
    7.9086   14.9878    1.9670 O   0  0  0  0  0  0  0  0  0  0  0  0
    7.3478   13.6266    3.7095 C   0  0  0  0  0  0  0  0  0  0  0  0
    7.3074   14.3889    4.8852 C   0  0  0  0  0  0  0  0  0  0  0  0
    7.2203   13.6247    5.9718 N   0  0  0  0  0  0  0  0  0  0  0  0
    7.2965   12.3187    5.5079 O   0  0  0  0  0  0  0  0  0  0  0  0
    7.3555   12.3191    4.1488 C   0  0  0  0  0  0  0  0  0  0  0  0
    7.2910   11.0281    3.2789 C   0  0  0  0  0  0  0  0  0  0  0  0
    8.4310   10.0537    3.2436 C   0  0  0  0  0  0  0  0  0  0  0  0
    8.1669   10.9237    2.0535 C   0  0  0  0  0  0  0  0  0  0  0  0
  1  2  1  0
  2  3  1  0
  2  4  1  0
  2  5  1  0
  5  6  1  6
  6  7  1  0
  7  8  1  0
  8  9  2  0
  8 10  1  0
 10 11  1  0
 11 12  1  0
 12 13  1  0
  5 14  1  0
 14 15  1  0
 15 16  2  0
 15 17  1  0
 17 18  1  0
 18 19  2  0
 19 20  1  0
 20 21  1  0
 21 22  1  0
 22 23  1  0
 23 24  1  0
 13 10  1  0
 21 17  2  0
 24 22  1  0
M  END
>  <inchikey>  (307) 
UTNOHUVGODOWSF-UHFFFAOYSA-N

>  <energy_score>  (307) 
-45.540413

>  <subsites>  (307) 
1 - Active Site,3 - A0541/A/147/1

>  <alias>  (307) 
C3508-P195

>  <tags>  (307) 
openbind_a71ev2a_c1_scaffolds,BulkDock Fragalysis export,openbind_a71ev2a_c1_knitwork_impure,fragmenstein_placed

>  <distance_score>  (307) 
0.988173

>  <placement_batch>  (307) 
openbind_a71ev2a_c1_knitwork_impure

>  <name>  (307) 
C3508-P195

>  <ref_mols>  (307) 
A0541a,A3612a

>  <smiles>  (307) 
CC(C)(C)[C@H](CNC(=O)C1CCC1)NC(=O)c1cnoc1C1CC1

>  <HIPPO Compound ID>  (307) 
40659

>  <HIPPO Pose ID>  (307) 
395808

>  <ref_pdb>  (307) 
A1779a

$$$$
C29723-P77
     RDKit          3D

 11 11  0  0  0  0  0  0  0  0999 V2000
    5.5131   14.7382   21.9613 C   0  0  0  0  0  0  0  0  0  0  0  0
    6.8970   14.4955   22.1764 O   0  0  0  0  0  0  0  0  0  0  0  0
    7.3820   15.1902   23.3267 C   0  0  0  0  0  0  0  0  0  0  0  0
    7.3343   14.2978   24.5667 C   0  0  2  0  0  0  0  0  0  0  0  0
    7.5354   15.0609   25.7641 O   0  0  0  0  0  0  0  0  0  0  0  0
    8.4227   13.2214   24.4677 C   0  0  0  0  0  0  0  0  0  0  0  0
    8.0227   11.9349   24.9934 N   0  0  0  0  0  0  0  0  0  0  0  0
    7.0652   11.6741   25.9286 C   0  0  0  0  0  0  0  0  0  0  0  0
    6.9948   10.3104   25.9775 C   0  0  0  0  0  0  0  0  0  0  0  0
    7.9446    9.7430   25.1728 N   0  0  0  0  0  0  0  0  0  0  0  0
    8.5467   10.7445   24.5830 C   0  0  0  0  0  0  0  0  0  0  0  0
  1  2  1  0
  2  3  1  0
  3  4  1  0
  4  5  1  1
  4  6  1  0
  6  7  1  0
  7  8  1  0
  8  9  2  0
  9 10  1  0
 10 11  2  0
 11  7  1  0
M  END
>  <inchikey>  (308) 
PFPNMXGZZXVBGJ-UHFFFAOYSA-N

>  <energy_score>  (308) 
-0.500216

>  <subsites>  (308) 
1 - Active Site

>  <alias>  (308) 
C29723-P77

>  <tags>  (308) 
openbind_a71ev2a_c1_scaffolds,BulkDock Fragalysis export,openbind_a71ev2a_c1_knitwork_impure,fragmenstein_placed

>  <distance_score>  (308) 
0.994772

>  <placement_batch>  (308) 
openbind_a71ev2a_c1_knitwork_impure

>  <name>  (308) 
C29723-P77

>  <ref_mols>  (308) 
A1209a,A0719a

>  <smiles>  (308) 
COC[C@H](O)Cn1ccnc1

>  <HIPPO Compound ID>  (308) 
32012

>  <HIPPO Pose ID>  (308) 
397332

>  <ref_pdb>  (308) 
A1779a

$$$$
C14594-P391
     RDKit          3D

 23 24  0  0  0  0  0  0  0  0999 V2000
    6.4382   -8.9504   11.3000 C   0  0  0  0  0  0  0  0  0  0  0  0
    7.7010   -8.4933   10.5616 C   0  0  0  0  0  0  0  0  0  0  0  0
    7.8819   -9.3766    9.3152 C   0  0  0  0  0  0  0  0  0  0  0  0
    8.7550   -8.7129    8.4152 O   0  0  0  0  0  0  0  0  0  0  0  0
    7.5688   -7.0230   10.1028 C   0  0  0  0  0  0  0  0  0  0  0  0
    6.7776   -6.8742    8.9330 O   0  0  0  0  0  0  0  0  0  0  0  0
    8.8304   -8.5444   11.5020 N   0  0  0  0  0  0  0  0  0  0  0  0
   10.1245   -9.4045   11.4745 C   0  0  0  0  0  0  0  0  0  0  0  0
   10.4421  -10.2348   10.7603 O   0  0  0  0  0  0  0  0  0  0  0  0
   10.9014   -8.7336   12.6470 N   0  0  0  0  0  0  0  0  0  0  0  0
   12.2139   -8.9055   13.0714 C   0  0  0  0  0  0  0  0  0  0  0  0
   13.0890   -9.7389   12.3877 C   0  0  0  0  0  0  0  0  0  0  0  0
   14.3772   -9.8649   12.8735 C   0  0  0  0  0  0  0  0  0  0  0  0
   14.8151   -9.2691   14.0030 N   0  0  0  0  0  0  0  0  0  0  0  0
   13.9243   -8.5029   14.6635 C   0  0  0  0  0  0  0  0  0  0  0  0
   14.2446   -7.9683   15.8959 O   0  0  0  0  0  0  0  0  0  0  0  0
   15.3427   -8.6029   16.5702 C   0  0  0  0  0  0  0  0  0  0  0  0
   14.9199   -9.9711   17.1302 C   0  0  0  0  0  0  0  0  0  0  0  0
   16.0051  -10.5907   18.0051 C   0  0  0  0  0  0  0  0  0  0  0  0
   16.4175   -9.6550   19.1364 C   0  0  0  0  0  0  0  0  0  0  0  0
   16.8319   -8.2872   18.6058 C   0  0  0  0  0  0  0  0  0  0  0  0
   15.7453   -7.6758   17.7286 C   0  0  0  0  0  0  0  0  0  0  0  0
   12.6435   -8.2430   14.2119 C   0  0  0  0  0  0  0  0  0  0  0  0
  1  2  1  0
  2  3  1  0
  3  4  1  0
  2  5  1  0
  5  6  1  0
  2  7  1  0
  7  8  1  0
  8  9  2  0
  8 10  1  0
 10 11  1  0
 11 12  2  0
 12 13  1  0
 13 14  2  0
 14 15  1  0
 15 16  1  0
 16 17  1  0
 17 18  1  0
 18 19  1  0
 19 20  1  0
 20 21  1  0
 21 22  1  0
 15 23  2  0
 23 11  1  0
 22 17  1  0
M  END
>  <inchikey>  (309) 
PHEZTEPOSWGUSQ-UHFFFAOYSA-N

>  <energy_score>  (309) 
-15.034172

>  <subsites>  (309) 
1 - Active Site,2 - A3977/A/202/1

>  <alias>  (309) 
C14594-P391

>  <tags>  (309) 
openbind_a71ev2a_c1_scaffolds,BulkDock Fragalysis export,openbind_a71ev2a_c1_knitwork_impure,fragmenstein_placed

>  <distance_score>  (309) 
0.691837

>  <placement_batch>  (309) 
openbind_a71ev2a_c1_knitwork_impure

>  <name>  (309) 
C14594-P391

>  <ref_mols>  (309) 
A0395a,A4526a

>  <smiles>  (309) 
CC(CO)(CO)NC(=O)Nc1ccnc(OC2CCCCC2)c1

>  <HIPPO Compound ID>  (309) 
7104

>  <HIPPO Pose ID>  (309) 
397445

>  <ref_pdb>  (309) 
A1779a

$$$$
C2912-P404
     RDKit          3D

 13 14  0  0  0  0  0  0  0  0999 V2000
    6.4732   11.4783   25.8203 O   0  0  0  0  0  0  0  0  0  0  0  0
    7.2852   11.8391   24.9717 C   0  0  0  0  0  0  0  0  0  0  0  0
    8.5180   11.0442   24.7289 C   0  0  0  0  0  0  0  0  0  0  0  0
    9.4910   11.5143   23.3324 S   0  0  0  0  0  0  0  0  0  0  0  0
    9.1839   13.2231   23.3466 C   0  0  0  0  0  0  0  0  0  0  0  0
   10.2272   13.9675   22.8601 N   0  0  0  0  0  0  0  0  0  0  0  0
   10.7402   14.9786   23.7795 C   0  0  0  0  0  0  0  0  0  0  0  0
   12.0877   15.4795   23.2988 C   0  0  0  0  0  0  0  0  0  0  0  0
   12.0456   15.9693   21.8558 C   0  0  0  0  0  0  0  0  0  0  0  0
   11.3892   14.9434   20.9401 C   0  0  0  0  0  0  0  0  0  0  0  0
   10.0380   14.5226   21.5047 C   0  0  0  0  0  0  0  0  0  0  0  0
    8.0859   13.7655   23.7747 N   0  0  0  0  0  0  0  0  0  0  0  0
    7.0991   13.0150   24.3164 N   0  0  0  0  0  0  0  0  0  0  0  0
  1  2  2  0
  2  3  1  0
  3  4  1  0
  4  5  1  0
  5  6  1  0
  6  7  1  0
  7  8  1  0
  8  9  1  0
  9 10  1  0
 10 11  1  0
  5 12  2  0
 12 13  1  0
 13  2  1  0
 11  6  1  0
M  END
>  <inchikey>  (310) 
PJDNNFWSTSASFT-UHFFFAOYSA-N

>  <energy_score>  (310) 
-25.491959

>  <subsites>  (310) 
1 - Active Site

>  <alias>  (310) 
C2912-P404

>  <tags>  (310) 
openbind_a71ev2a_c1_scaffolds,BulkDock Fragalysis export,openbind_a71ev2a_c1_knitwork_impure,fragmenstein_placed

>  <distance_score>  (310) 
0.986744

>  <placement_batch>  (310) 
openbind_a71ev2a_c1_knitwork_impure

>  <name>  (310) 
C2912-P404

>  <ref_mols>  (310) 
A4563a,A0875a

>  <smiles>  (310) 
O=C1CSC(N2CCCCC2)=NN1

>  <HIPPO Compound ID>  (310) 
17883

>  <HIPPO Pose ID>  (310) 
397733

>  <ref_pdb>  (310) 
A0514b

$$$$
C2865-P404
     RDKit          3D

 12 13  0  0  0  0  0  0  0  0999 V2000
    7.1725   11.6078   25.7539 O   0  0  0  0  0  0  0  0  0  0  0  0
    7.9807   11.8231   24.8678 C   0  0  0  0  0  0  0  0  0  0  0  0
    8.2731   13.1739   24.4024 C   0  0  0  0  0  0  0  0  0  0  0  0
    9.3083   13.0470   23.5696 C   0  0  0  0  0  0  0  0  0  0  0  0
   10.0839   14.0425   23.0197 N   0  0  0  0  0  0  0  0  0  0  0  0
   10.6038   15.1137   23.8617 C   0  0  0  0  0  0  0  0  0  0  0  0
   11.9477   15.5828   23.3279 C   0  0  0  0  0  0  0  0  0  0  0  0
   11.8878   15.9608   21.8521 C   0  0  0  0  0  0  0  0  0  0  0  0
   11.2557   14.8481   21.0255 C   0  0  0  0  0  0  0  0  0  0  0  0
    9.9061   14.4496   21.6130 C   0  0  0  0  0  0  0  0  0  0  0  0
    9.7837   11.6383   23.3999 C   0  0  0  0  0  0  0  0  0  0  0  0
    8.8029   10.7907   24.1725 C   0  0  0  0  0  0  0  0  0  0  0  0
  1  2  2  0
  2  3  1  0
  3  4  2  0
  4  5  1  0
  5  6  1  0
  6  7  1  0
  7  8  1  0
  8  9  1  0
  9 10  1  0
  4 11  1  0
 11 12  1  0
 12  2  1  0
 10  5  1  0
M  END
>  <inchikey>  (311) 
HJVFTZYOPBWDAT-UHFFFAOYSA-N

>  <energy_score>  (311) 
-26.374627

>  <subsites>  (311) 
1 - Active Site

>  <alias>  (311) 
C2865-P404

>  <tags>  (311) 
openbind_a71ev2a_c1_scaffolds,BulkDock Fragalysis export,openbind_a71ev2a_c1_knitwork_impure,fragmenstein_placed

>  <distance_score>  (311) 
0.853184

>  <placement_batch>  (311) 
openbind_a71ev2a_c1_knitwork_impure

>  <name>  (311) 
C2865-P404

>  <ref_mols>  (311) 
A4563a,A0875a

>  <smiles>  (311) 
O=C1C=C(N2CCCCC2)CC1

>  <HIPPO Compound ID>  (311) 
7839

>  <HIPPO Pose ID>  (311) 
397774

>  <ref_pdb>  (311) 
A0514b

$$$$
C9947-P234
     RDKit          3D

 11 11  0  0  0  0  0  0  0  0999 V2000
   10.3640   14.9048   20.4485 O   0  0  0  0  0  0  0  0  0  0  0  0
    9.7340   15.2231   21.4514 C   0  0  0  0  0  0  0  0  0  0  0  0
   10.2852   15.0701   22.8403 C   0  0  0  0  0  0  0  0  0  0  0  0
    9.2356   14.5751   23.8307 C   0  0  0  0  0  0  0  0  0  0  0  0
    8.7746   13.1124   23.6419 C   0  0  1  0  0  0  0  0  0  0  0  0
    9.9600   12.1491   23.5898 C   0  0  0  0  0  0  0  0  0  0  0  0
    9.5087   10.7021   23.5662 C   0  0  0  0  0  0  0  0  0  0  0  0
    8.5419   10.4104   24.5812 N   0  0  0  0  0  0  0  0  0  0  0  0
    7.6917   11.2977   25.1455 C   0  0  0  0  0  0  0  0  0  0  0  0
    6.9068   10.9074   26.0046 O   0  0  0  0  0  0  0  0  0  0  0  0
    7.7962   12.7551   24.7708 C   0  0  0  0  0  0  0  0  0  0  0  0
  1  2  2  0
  2  3  1  0
  3  4  1  0
  5  4  1  1
  5  6  1  0
  6  7  1  0
  7  8  1  0
  8  9  1  0
  9 10  2  0
  9 11  1  0
 11  5  1  0
M  END
>  <inchikey>  (312) 
GSETXYYFSRYMOU-UHFFFAOYSA-N

>  <energy_score>  (312) 
-24.443042

>  <subsites>  (312) 
1 - Active Site

>  <alias>  (312) 
C9947-P234

>  <tags>  (312) 
openbind_a71ev2a_c1_scaffolds,BulkDock Fragalysis export,openbind_a71ev2a_c1_knitwork_impure,fragmenstein_placed

>  <distance_score>  (312) 
0.994346

>  <placement_batch>  (312) 
openbind_a71ev2a_c1_knitwork_impure

>  <name>  (312) 
C9947-P234

>  <ref_mols>  (312) 
A1775a,A3895a

>  <smiles>  (312) 
O=CCC[C@H]1CCNC(=O)C1

>  <HIPPO Compound ID>  (312) 
4080

>  <HIPPO Pose ID>  (312) 
398669

>  <ref_pdb>  (312) 
A0514b

$$$$
C11200-P153
     RDKit          3D

 13 13  0  0  0  0  0  0  0  0999 V2000
   11.1625   15.0347   23.6868 C   0  0  0  0  0  0  0  0  0  0  0  0
    9.8273   14.8226   23.0553 C   0  0  0  0  0  0  0  0  0  0  0  0
    8.8253   14.0317   23.4830 C   0  0  0  0  0  0  0  0  0  0  0  0
    7.5040   13.9961   22.7654 C   0  0  0  0  0  0  0  0  0  0  0  0
    6.7371   15.3102   22.8758 C   0  0  0  0  0  0  0  0  0  0  0  0
    8.9409   13.2657   24.7606 C   0  0  0  0  0  0  0  0  0  0  0  0
    9.3214   13.7690   25.8131 O   0  0  0  0  0  0  0  0  0  0  0  0
    8.5191   11.8546   24.7779 C   0  0  0  0  0  0  0  0  0  0  0  0
    9.1305   10.9099   23.9593 C   0  0  0  0  0  0  0  0  0  0  0  0
    8.7767    9.5869   24.1534 C   0  0  0  0  0  0  0  0  0  0  0  0
    7.8512    9.1852   25.0601 N   0  0  0  0  0  0  0  0  0  0  0  0
    7.2592   10.1319   25.8141 C   0  0  0  0  0  0  0  0  0  0  0  0
    7.5669   11.4713   25.7211 C   0  0  0  0  0  0  0  0  0  0  0  0
  1  2  1  0
  2  3  2  3
  3  4  1  0
  4  5  1  0
  3  6  1  0
  6  7  2  0
  6  8  1  0
  8  9  2  0
  9 10  1  0
 10 11  2  0
 11 12  1  0
 12 13  2  0
 13  8  1  0
M  END
>  <inchikey>  (313) 
YNVJQHLIXVUGMB-UHFFFAOYSA-N

>  <energy_score>  (313) 
-33.635753

>  <subsites>  (313) 
1 - Active Site

>  <alias>  (313) 
C11200-P153

>  <tags>  (313) 
openbind_a71ev2a_c1_scaffolds,BulkDock Fragalysis export,openbind_a71ev2a_c1_knitwork_impure,fragmenstein_placed

>  <distance_score>  (313) 
0.804637

>  <placement_batch>  (313) 
openbind_a71ev2a_c1_knitwork_impure

>  <name>  (313) 
C11200-P153

>  <ref_mols>  (313) 
A3207a,A1779a

>  <smiles>  (313) 
CC=C(CC)C(=O)c1ccncc1

>  <HIPPO Compound ID>  (313) 
9976

>  <HIPPO Pose ID>  (313) 
398996

>  <ref_pdb>  (313) 
A0514b

$$$$
C11228-P153
     RDKit          3D

 17 17  0  0  0  0  0  0  0  0999 V2000
    9.0568   13.9921   25.9477 C   0  0  0  0  0  0  0  0  0  0  0  0
    8.1542   13.4028   24.8742 C   0  0  1  0  0  0  0  0  0  0  0  0
    8.4153   13.8882   23.4496 C   0  0  0  0  0  0  0  0  0  0  0  0
    7.9235   13.2518   22.5116 O   0  0  0  0  0  0  0  0  0  0  0  0
    9.1225   15.2418   23.2635 C   0  0  0  0  0  0  0  0  0  0  0  0
    9.6535   15.6123   21.8647 C   0  0  2  0  0  0  0  0  0  0  0  0
    8.6810   15.1992   20.7948 C   0  0  0  0  0  0  0  0  0  0  0  0
   11.1069   15.1396   21.5456 C   0  0  0  0  0  0  0  0  0  0  0  0
   11.4150   15.1398   20.0283 C   0  0  0  0  0  0  0  0  0  0  0  0
   12.0835   16.1265   22.1913 C   0  0  0  0  0  0  0  0  0  0  0  0
   11.3781   13.7573   22.1511 C   0  0  0  0  0  0  0  0  0  0  0  0
    8.0852   11.8860   24.9977 C   0  0  0  0  0  0  0  0  0  0  0  0
    8.9086   11.0166   24.2708 C   0  0  0  0  0  0  0  0  0  0  0  0
    8.7292    9.6487   24.4192 C   0  0  0  0  0  0  0  0  0  0  0  0
    7.8112    9.1015   25.2484 N   0  0  0  0  0  0  0  0  0  0  0  0
    7.0344    9.9495   25.9465 C   0  0  0  0  0  0  0  0  0  0  0  0
    7.1362   11.3254   25.8606 C   0  0  0  0  0  0  0  0  0  0  0  0
  2  1  1  1
  2  3  1  0
  3  4  2  0
  3  5  1  0
  5  6  1  0
  6  7  1  6
  6  8  1  0
  8  9  1  0
  8 10  1  0
  8 11  1  0
  2 12  1  0
 12 13  2  0
 13 14  1  0
 14 15  2  0
 15 16  1  0
 16 17  2  0
 17 12  1  0
M  END
>  <inchikey>  (314) 
GZBXXUHFYNAKIR-UHFFFAOYSA-N

>  <energy_score>  (314) 
-23.837075

>  <subsites>  (314) 
1 - Active Site

>  <alias>  (314) 
C11228-P153

>  <tags>  (314) 
openbind_a71ev2a_c1_scaffolds,BulkDock Fragalysis export,openbind_a71ev2a_c1_knitwork_impure,fragmenstein_placed

>  <distance_score>  (314) 
0.978405

>  <placement_batch>  (314) 
openbind_a71ev2a_c1_knitwork_impure

>  <name>  (314) 
C11228-P153

>  <ref_mols>  (314) 
A3207a,A1779a

>  <smiles>  (314) 
C[C@@H](C(=O)C[C@H](C)C(C)(C)C)c1ccncc1

>  <HIPPO Compound ID>  (314) 
2897

>  <HIPPO Pose ID>  (314) 
399003

>  <ref_pdb>  (314) 
A0514b

$$$$
C2393-P153
     RDKit          3D

 11 11  0  0  0  0  0  0  0  0999 V2000
   10.5345   15.7292   23.2596 C   0  0  0  0  0  0  0  0  0  0  0  0
    9.9126   14.5187   22.5933 C   0  0  0  0  0  0  0  0  0  0  0  0
    8.3157   14.0714   23.3274 S   0  0  0  0  0  0  0  0  0  0  0  0
    8.8864   13.3425   24.8183 C   0  0  0  0  0  0  0  0  0  0  0  0
    9.2708   14.0242   25.7651 O   0  0  0  0  0  0  0  0  0  0  0  0
    8.8337   11.8400   24.9308 C   0  0  0  0  0  0  0  0  0  0  0  0
    9.4013   11.0931   23.7400 C   0  0  0  0  0  0  0  0  0  0  0  0
    9.4233    9.5869   23.9432 C   0  0  0  0  0  0  0  0  0  0  0  0
    8.2753    9.0171   24.6222 N   0  0  0  0  0  0  0  0  0  0  0  0
    7.4742    9.8341   25.5122 C   0  0  0  0  0  0  0  0  0  0  0  0
    7.4506   11.3299   25.2464 C   0  0  0  0  0  0  0  0  0  0  0  0
  1  2  1  0
  2  3  1  0
  3  4  1  0
  4  5  2  0
  4  6  1  0
  6  7  1  0
  7  8  1  0
  8  9  1  0
  9 10  1  0
 10 11  1  0
 11  6  1  0
M  END
>  <inchikey>  (315) 
ZVYACGZLRYTKSB-UHFFFAOYSA-N

>  <energy_score>  (315) 
-20.61075

>  <subsites>  (315) 
1 - Active Site

>  <alias>  (315) 
C2393-P153

>  <tags>  (315) 
openbind_a71ev2a_c1_scaffolds,BulkDock Fragalysis export,openbind_a71ev2a_c1_knitwork_impure,fragmenstein_placed

>  <distance_score>  (315) 
0.948803

>  <placement_batch>  (315) 
openbind_a71ev2a_c1_knitwork_impure

>  <name>  (315) 
C2393-P153

>  <ref_mols>  (315) 
A3207a,A1779a

>  <smiles>  (315) 
CCSC(=O)C1CCNCC1

>  <HIPPO Compound ID>  (315) 
18185

>  <HIPPO Pose ID>  (315) 
399018

>  <ref_pdb>  (315) 
A0514b

$$$$
C2408-P153
     RDKit          3D

 15 15  0  0  0  0  0  0  0  0999 V2000
    9.3088    9.7910   23.6832 C   0  0  0  0  0  0  0  0  0  0  0  0
    9.2827   11.3171   23.6737 C   0  0  0  0  0  0  0  0  0  0  0  0
    8.7766   11.9615   24.9555 C   0  0  2  0  0  0  0  0  0  0  0  0
    7.4672   11.4145   25.4975 C   0  0  0  0  0  0  0  0  0  0  0  0
    8.8121   13.4878   25.0520 C   0  0  0  0  0  0  0  0  0  0  0  0
    9.1540   13.9498   26.1568 O   0  0  0  0  0  0  0  0  0  0  0  0
    8.4435   14.4528   23.8727 C   0  0  0  0  0  0  0  0  0  0  0  0
    7.2153   13.9528   23.1076 C   0  0  0  0  0  0  0  0  0  0  0  0
    8.0106   15.7961   24.5226 C   0  0  0  0  0  0  0  0  0  0  0  0
    9.6228   14.5903   22.9688 N   0  0  0  0  0  0  0  0  0  0  0  0
   10.8156   15.1141   23.6554 C   0  0  0  0  0  0  0  0  0  0  0  0
   12.0325   15.0300   22.7465 C   0  0  0  0  0  0  0  0  0  0  0  0
   11.8289   15.8343   21.4754 C   0  0  0  0  0  0  0  0  0  0  0  0
   10.5473   15.3961   20.7874 C   0  0  0  0  0  0  0  0  0  0  0  0
    9.3602   15.4001   21.7544 C   0  0  0  0  0  0  0  0  0  0  0  0
  1  2  1  0
  2  3  1  0
  3  4  1  6
  3  5  1  0
  5  6  2  0
  5  7  1  0
  7  8  1  0
  7  9  1  0
  7 10  1  0
 10 11  1  0
 11 12  1  0
 12 13  1  0
 13 14  1  0
 14 15  1  0
 15 10  1  0
M  END
>  <inchikey>  (316) 
DJUNTQQNFNJVRB-UHFFFAOYSA-N

>  <energy_score>  (316) 
-46.034709

>  <subsites>  (316) 
1 - Active Site

>  <alias>  (316) 
C2408-P153

>  <tags>  (316) 
openbind_a71ev2a_c1_scaffolds,BulkDock Fragalysis export,openbind_a71ev2a_c1_knitwork_impure,fragmenstein_placed

>  <distance_score>  (316) 
0.958952

>  <placement_batch>  (316) 
openbind_a71ev2a_c1_knitwork_impure

>  <name>  (316) 
C2408-P153

>  <ref_mols>  (316) 
A3207a,A1779a

>  <smiles>  (316) 
CC[C@H](C)C(=O)C(C)(C)N1CCCCC1

>  <HIPPO Compound ID>  (316) 
12979

>  <HIPPO Pose ID>  (316) 
399024

>  <ref_pdb>  (316) 
A0514b

$$$$
C2040-P496
     RDKit          3D

 15 17  0  0  0  0  0  0  0  0999 V2000
    8.3095   13.2812   24.7061 C   0  0  0  0  0  0  0  0  0  0  0  0
    7.2984   13.4314   25.5327 N   0  0  0  0  0  0  0  0  0  0  0  0
    6.6943   14.5870   25.1334 C   0  0  0  0  0  0  0  0  0  0  0  0
    7.3649   15.1634   24.0750 C   0  0  0  0  0  0  0  0  0  0  0  0
    8.4001   14.3146   23.7999 N   0  0  0  0  0  0  0  0  0  0  0  0
    9.5014   14.4502   22.8627 C   0  0  2  0  0  0  0  0  0  0  0  0
   10.6310   15.3024   23.4503 C   0  0  0  0  0  0  0  0  0  0  0  0
   11.8075   15.3041   22.4834 C   0  0  0  0  0  0  0  0  0  0  0  0
   11.3913   15.7505   21.0843 C   0  0  0  0  0  0  0  0  0  0  0  0
   10.2875   14.9505   20.5450 N   0  0  0  0  0  0  0  0  0  0  0  0
    9.1333   14.9542   21.4559 C   0  0  0  0  0  0  0  0  0  0  0  0
    6.9851   16.4450   23.4274 C   0  0  0  0  0  0  0  0  0  0  0  0
    6.0508   17.2370   24.3630 C   0  0  0  0  0  0  0  0  0  0  0  0
    4.9407   16.3490   24.9590 C   0  0  0  0  0  0  0  0  0  0  0  0
    5.5111   15.1886   25.7996 C   0  0  0  0  0  0  0  0  0  0  0  0
  1  2  2  0
  2  3  1  0
  3  4  2  0
  4  5  1  0
  6  5  1  1
  6  7  1  0
  7  8  1  0
  8  9  1  0
  9 10  1  0
 10 11  1  0
  4 12  1  0
 12 13  1  0
 13 14  1  0
 14 15  1  0
  5  1  1  0
 11  6  1  0
 15  3  1  0
M  END
>  <inchikey>  (317) 
NVQPTGDZIZQWGQ-UHFFFAOYSA-N

>  <energy_score>  (317) 
-22.352123

>  <subsites>  (317) 
1 - Active Site

>  <alias>  (317) 
C2040-P496

>  <tags>  (317) 
openbind_a71ev2a_c1_scaffolds,BulkDock Fragalysis export,openbind_a71ev2a_c1_knitwork_impure,fragmenstein_placed

>  <distance_score>  (317) 
0.892446

>  <placement_batch>  (317) 
openbind_a71ev2a_c1_knitwork_impure

>  <name>  (317) 
C2040-P496

>  <ref_mols>  (317) 
A4877a,A3371a

>  <smiles>  (317) 
c1nc2c(n1[C@@H]1CCCNC1)CCCC2

>  <HIPPO Compound ID>  (317) 
2040

>  <HIPPO Pose ID>  (317) 
399041

>  <ref_pdb>  (317) 
A0514b

$$$$
C2059-P496
     RDKit          3D

 15 17  0  0  0  0  0  0  0  0999 V2000
    8.3425   13.1985   24.4686 C   0  0  0  0  0  0  0  0  0  0  0  0
    7.3449   13.2414   25.3222 N   0  0  0  0  0  0  0  0  0  0  0  0
    6.6873   14.3958   25.0195 C   0  0  0  0  0  0  0  0  0  0  0  0
    7.2938   15.0689   23.9788 C   0  0  0  0  0  0  0  0  0  0  0  0
    8.3771   14.3043   23.6429 N   0  0  0  0  0  0  0  0  0  0  0  0
    9.4974   14.5690   22.7522 C   0  0  0  0  0  0  0  0  0  0  0  0
   10.6645   15.1847   23.5301 C   0  0  0  0  0  0  0  0  0  0  0  0
   11.8799   15.2682   22.6221 C   0  0  0  0  0  0  0  0  0  0  0  0
   11.6005   16.0604   21.4355 N   0  0  0  0  0  0  0  0  0  0  0  0
   10.4935   15.5146   20.6484 C   0  0  0  0  0  0  0  0  0  0  0  0
    9.2219   15.3967   21.4921 C   0  0  0  0  0  0  0  0  0  0  0  0
    6.8609   16.3903   23.4535 C   0  0  0  0  0  0  0  0  0  0  0  0
    5.4870   16.7830   24.0365 C   0  0  0  0  0  0  0  0  0  0  0  0
    5.3163   16.3963   25.5170 C   0  0  0  0  0  0  0  0  0  0  0  0
    5.4841   14.8825   25.7367 C   0  0  0  0  0  0  0  0  0  0  0  0
  1  2  2  0
  2  3  1  0
  3  4  2  0
  4  5  1  0
  5  6  1  0
  6  7  1  0
  7  8  1  0
  8  9  1  0
  9 10  1  0
 10 11  1  0
  4 12  1  0
 12 13  1  0
 13 14  1  0
 14 15  1  0
  5  1  1  0
 11  6  1  0
 15  3  1  0
M  END
>  <inchikey>  (318) 
IJHPSABDUDUHER-UHFFFAOYSA-N

>  <energy_score>  (318) 
-34.164466

>  <subsites>  (318) 
1 - Active Site

>  <alias>  (318) 
C2059-P496

>  <tags>  (318) 
openbind_a71ev2a_c1_scaffolds,BulkDock Fragalysis export,openbind_a71ev2a_c1_knitwork_impure,fragmenstein_placed

>  <distance_score>  (318) 
0.780751

>  <placement_batch>  (318) 
openbind_a71ev2a_c1_knitwork_impure

>  <name>  (318) 
C2059-P496

>  <ref_mols>  (318) 
A4877a,A3371a

>  <smiles>  (318) 
c1nc2c(n1C1CCNCC1)CCCC2

>  <HIPPO Compound ID>  (318) 
24830

>  <HIPPO Pose ID>  (318) 
399046

>  <ref_pdb>  (318) 
A0514b

$$$$
C16466-P174
     RDKit          3D

 15 15  0  0  0  0  0  0  0  0999 V2000
    3.9380    7.8989   31.8499 C   0  0  0  0  0  0  0  0  0  0  0  0
    4.6328    9.0806   31.1864 C   0  0  0  0  0  0  0  0  0  0  0  0
    4.5312    9.0585   29.6616 C   0  0  1  0  0  0  0  0  0  0  0  0
    2.7218    9.5754   29.0997 Br  0  0  0  0  0  0  0  0  0  0  0  0
    5.4903   10.0667   29.0007 C   0  0  0  0  0  0  0  0  0  0  0  0
    6.0919   10.8666   29.6038 O   0  0  0  0  0  0  0  0  0  0  0  0
    5.4463    9.7804   27.4737 N   0  0  0  0  0  0  0  0  0  0  0  0
    6.2035   10.3563   26.3920 C   0  0  0  0  0  0  0  0  0  0  0  0
    6.4687   11.8458   26.5425 C   0  0  0  0  0  0  0  0  0  0  0  0
    6.9782   12.5296   25.2743 C   0  0  0  0  0  0  0  0  0  0  0  0
    8.1252   11.8842   24.5743 C   0  0  0  0  0  0  0  0  0  0  0  0
    9.3742   12.4760   24.2863 C   0  0  0  0  0  0  0  0  0  0  0  0
   10.1850   11.6652   23.6111 N   0  0  0  0  0  0  0  0  0  0  0  0
    9.4527   10.5597   23.4116 N   0  0  0  0  0  0  0  0  0  0  0  0
    8.2131   10.6408   23.9783 C   0  0  0  0  0  0  0  0  0  0  0  0
  1  2  1  0
  2  3  1  0
  3  4  1  1
  3  5  1  0
  5  6  2  0
  5  7  1  0
  7  8  1  0
  8  9  1  0
  9 10  1  0
 10 11  1  0
 11 12  1  0
 12 13  2  0
 13 14  1  0
 14 15  1  0
 15 11  2  0
M  END
>  <inchikey>  (319) 
NVJZJVXTLOAEJS-UHFFFAOYSA-N

>  <energy_score>  (319) 
-9.780954

>  <subsites>  (319) 
1 - Active Site

>  <alias>  (319) 
C16466-P174

>  <tags>  (319) 
openbind_a71ev2a_c1_scaffolds,BulkDock Fragalysis export,openbind_a71ev2a_c1_knitwork_impure,fragmenstein_placed

>  <distance_score>  (319) 
0.869901

>  <placement_batch>  (319) 
openbind_a71ev2a_c1_knitwork_impure

>  <name>  (319) 
C16466-P174

>  <ref_mols>  (319) 
A0556a,A3371a

>  <smiles>  (319) 
CC[C@@H](Br)C(=O)NCCCc1cn[nH]c1

>  <HIPPO Compound ID>  (319) 
5962

>  <HIPPO Pose ID>  (319) 
399208

>  <ref_pdb>  (319) 
A0514b

$$$$
C7135-P290
     RDKit          3D

 22 23  0  0  0  0  0  0  0  0999 V2000
    3.8078   12.1873   29.9811 C   0  0  0  0  0  0  0  0  0  0  0  0
    3.2719   11.0234   29.1434 C   0  0  2  0  0  0  0  0  0  0  0  0
    3.4840   11.3300   27.6412 C   0  0  0  0  0  0  0  0  0  0  0  0
    4.8957   10.9395   27.1954 C   0  0  0  0  0  0  0  0  0  0  0  0
    5.4525   10.0344   27.6806 O   0  0  0  0  0  0  0  0  0  0  0  0
    5.3141   11.8660   26.0148 N   0  0  0  0  0  0  0  0  0  0  0  0
    6.5040   11.9213   25.2824 C   0  0  0  0  0  0  0  0  0  0  0  0
    7.3080   10.7996   25.1519 C   0  0  0  0  0  0  0  0  0  0  0  0
    8.4577   10.9168   24.3912 C   0  0  0  0  0  0  0  0  0  0  0  0
    8.8638   12.0661   23.7982 N   0  0  0  0  0  0  0  0  0  0  0  0
    8.1041   13.1631   23.9580 C   0  0  0  0  0  0  0  0  0  0  0  0
    8.5418   14.4158   23.4974 N   0  0  0  0  0  0  0  0  0  0  0  0
    8.9844   14.4903   22.0871 C   0  0  0  0  0  0  0  0  0  0  0  0
   10.4844   14.1830   21.8691 C   0  0  0  0  0  0  0  0  0  0  0  0
   11.3811   14.9654   22.7490 N   0  0  0  0  0  0  0  0  0  0  0  0
   10.9798   14.6880   24.1383 C   0  0  0  0  0  0  0  0  0  0  0  0
    9.5026   15.0307   24.4387 C   0  0  0  0  0  0  0  0  0  0  0  0
    6.8965   13.1076   24.6667 C   0  0  0  0  0  0  0  0  0  0  0  0
    1.8071   10.7706   29.4601 C   0  0  0  0  0  0  0  0  0  0  0  0
    1.6120   10.6156   30.7898 F   0  0  0  0  0  0  0  0  0  0  0  0
    1.3439    9.6619   28.8522 F   0  0  0  0  0  0  0  0  0  0  0  0
    1.0365   11.8075   29.0572 F   0  0  0  0  0  0  0  0  0  0  0  0
  2  1  1  1
  2  3  1  0
  3  4  1  0
  4  5  2  0
  4  6  1  0
  6  7  1  0
  7  8  2  0
  8  9  1  0
  9 10  2  0
 10 11  1  0
 11 12  1  0
 12 13  1  0
 13 14  1  0
 14 15  1  0
 15 16  1  0
 16 17  1  0
 11 18  2  0
  2 19  1  0
 19 20  1  0
 19 21  1  0
 19 22  1  0
 18  7  1  0
 17 12  1  0
M  END
>  <inchikey>  (320) 
AYBAPWWBZFMAJL-UHFFFAOYSA-N

>  <energy_score>  (320) 
-36.512283

>  <subsites>  (320) 
1 - Active Site

>  <alias>  (320) 
C7135-P290

>  <tags>  (320) 
openbind_a71ev2a_c1_scaffolds,BulkDock Fragalysis export,openbind_a71ev2a_c1_knitwork_impure,fragmenstein_placed

>  <distance_score>  (320) 
0.974742

>  <placement_batch>  (320) 
openbind_a71ev2a_c1_knitwork_impure

>  <name>  (320) 
C7135-P290

>  <ref_mols>  (320) 
A1445a,A4306a

>  <smiles>  (320) 
C[C@H](CC(=O)Nc1ccnc(N2CCNCC2)c1)C(F)(F)F

>  <HIPPO Compound ID>  (320) 
4100

>  <HIPPO Pose ID>  (320) 
399385

>  <ref_pdb>  (320) 
A0514b

$$$$
C2382-P465
     RDKit          3D

 15 15  0  0  0  0  0  0  0  0999 V2000
    7.7221   10.6301   25.4802 C   0  0  0  0  0  0  0  0  0  0  0  0
    8.8661   10.9234   24.5201 C   0  0  0  0  0  0  0  0  0  0  0  0
    9.8772    9.7862   24.5122 C   0  0  0  0  0  0  0  0  0  0  0  0
    9.5383   12.2590   24.8205 C   0  0  0  0  0  0  0  0  0  0  0  0
    8.5200   13.3784   24.9989 C   0  0  0  0  0  0  0  0  0  0  0  0
    7.9510   13.4790   26.0947 O   0  0  0  0  0  0  0  0  0  0  0  0
    8.1241   14.2832   23.7975 C   0  0  0  0  0  0  0  0  0  0  0  0
    7.0447   13.5206   23.0182 C   0  0  0  0  0  0  0  0  0  0  0  0
    7.4838   15.5679   24.3585 C   0  0  0  0  0  0  0  0  0  0  0  0
    9.3058   14.5419   22.9387 N   0  0  0  0  0  0  0  0  0  0  0  0
   10.4124   15.2330   23.6141 C   0  0  0  0  0  0  0  0  0  0  0  0
   11.6674   15.1055   22.7579 C   0  0  0  0  0  0  0  0  0  0  0  0
   11.4598   15.7644   21.4048 C   0  0  0  0  0  0  0  0  0  0  0  0
   10.2223   15.2022   20.7260 C   0  0  0  0  0  0  0  0  0  0  0  0
    9.0083   15.2201   21.6579 C   0  0  0  0  0  0  0  0  0  0  0  0
  1  2  1  0
  2  3  1  0
  2  4  1  0
  4  5  1  0
  5  6  2  0
  5  7  1  0
  7  8  1  0
  7  9  1  0
  7 10  1  0
 10 11  1  0
 11 12  1  0
 12 13  1  0
 13 14  1  0
 14 15  1  0
 15 10  1  0
M  END
>  <inchikey>  (321) 
WRGJLDZMMZTWSM-UHFFFAOYSA-N

>  <energy_score>  (321) 
-56.855242

>  <subsites>  (321) 
1 - Active Site

>  <alias>  (321) 
C2382-P465

>  <tags>  (321) 
openbind_a71ev2a_c1_scaffolds,BulkDock Fragalysis export,openbind_a71ev2a_c1_knitwork_impure,fragmenstein_placed

>  <distance_score>  (321) 
0.971525

>  <placement_batch>  (321) 
openbind_a71ev2a_c1_knitwork_impure

>  <name>  (321) 
C2382-P465

>  <ref_mols>  (321) 
A4786a,A1775a

>  <smiles>  (321) 
CC(C)CC(=O)C(C)(C)N1CCCCC1

>  <HIPPO Compound ID>  (321) 
10784

>  <HIPPO Pose ID>  (321) 
399495

>  <ref_pdb>  (321) 
A0514b

$$$$
C18170-P495
     RDKit          3D

 12 12  0  0  0  0  0  0  0  0999 V2000
   10.7649   15.4145   20.8109 C   0  0  0  0  0  0  0  0  0  0  0  0
    9.4637   14.9349   21.4309 C   0  0  0  0  0  0  0  0  0  0  0  0
    9.6343   14.0646   22.6953 C   0  0  0  0  0  0  0  0  0  0  0  0
   10.1278   14.8884   23.8962 C   0  0  0  0  0  0  0  0  0  0  0  0
   11.6425   14.8572   24.0366 C   0  0  0  0  0  0  0  0  0  0  0  0
    8.3034   13.3699   23.0165 C   0  0  0  0  0  0  0  0  0  0  0  0
    7.2664   13.6665   22.4266 O   0  0  0  0  0  0  0  0  0  0  0  0
    8.2694   12.3018   23.9911 C   0  0  0  0  0  0  0  0  0  0  0  0
    7.3062   12.0932   24.9604 C   0  0  0  0  0  0  0  0  0  0  0  0
    7.5810   10.8282   25.4881 C   0  0  0  0  0  0  0  0  0  0  0  0
    8.6527   10.2744   24.9241 N   0  0  0  0  0  0  0  0  0  0  0  0
    9.0540   11.1793   24.0115 N   0  0  0  0  0  0  0  0  0  0  0  0
  1  2  1  0
  2  3  1  0
  3  4  1  0
  4  5  1  0
  3  6  1  0
  6  7  2  0
  6  8  1  0
  8  9  2  0
  9 10  1  0
 10 11  2  0
 11 12  1  0
 12  8  1  0
M  END
>  <inchikey>  (322) 
PYHYHSZBLFIGJJ-UHFFFAOYSA-N

>  <energy_score>  (322) 
-8.712156

>  <subsites>  (322) 
1 - Active Site

>  <alias>  (322) 
C18170-P495

>  <tags>  (322) 
openbind_a71ev2a_c1_scaffolds,BulkDock Fragalysis export,openbind_a71ev2a_c1_knitwork_impure,fragmenstein_placed

>  <distance_score>  (322) 
0.896404

>  <placement_batch>  (322) 
openbind_a71ev2a_c1_knitwork_impure

>  <name>  (322) 
C18170-P495

>  <ref_mols>  (322) 
A0556a,A4874b

>  <smiles>  (322) 
CCC(CC)C(=O)c1ccn[nH]1

>  <HIPPO Compound ID>  (322) 
1509

>  <HIPPO Pose ID>  (322) 
399679

>  <ref_pdb>  (322) 
A0514b

$$$$
C18171-P495
     RDKit          3D

 15 15  0  0  0  0  0  0  0  0999 V2000
    9.8217   15.8261   23.9478 C   0  0  0  0  0  0  0  0  0  0  0  0
    9.6914   14.6861   22.9295 C   0  0  0  0  0  0  0  0  0  0  0  0
   10.8792   13.7415   23.1730 C   0  0  0  0  0  0  0  0  0  0  0  0
    8.3078   14.0114   23.0999 C   0  0  0  0  0  0  0  0  0  0  0  0
    8.0180   13.3167   24.4180 C   0  0  0  0  0  0  0  0  0  0  0  0
    7.5326   13.9205   25.3721 O   0  0  0  0  0  0  0  0  0  0  0  0
    8.2791   11.8965   24.5151 C   0  0  0  0  0  0  0  0  0  0  0  0
    7.7143   10.9941   25.4322 C   0  0  0  0  0  0  0  0  0  0  0  0
    8.1633    9.7530   25.2579 N   0  0  0  0  0  0  0  0  0  0  0  0
    9.0226    9.8492   24.2352 N   0  0  0  0  0  0  0  0  0  0  0  0
    9.1056   11.1118   23.7404 C   0  0  0  0  0  0  0  0  0  0  0  0
    9.7130   15.2496   21.4747 C   0  0  0  0  0  0  0  0  0  0  0  0
   11.0806   15.4463   20.8439 C   0  0  0  0  0  0  0  0  0  0  0  0
   11.8235   16.2825   21.6061 F   0  0  0  0  0  0  0  0  0  0  0  0
   10.9253   16.0310   19.6335 F   0  0  0  0  0  0  0  0  0  0  0  0
  1  2  1  0
  2  3  1  0
  2  4  1  0
  4  5  1  0
  5  6  2  0
  5  7  1  0
  7  8  1  0
  8  9  2  0
  9 10  1  0
 10 11  1  0
  2 12  1  0
 12 13  1  0
 13 14  1  0
 13 15  1  0
 11  7  2  0
M  END
>  <inchikey>  (323) 
JCTAJWPEQHCFMI-UHFFFAOYSA-N

>  <energy_score>  (323) 
-22.006652

>  <subsites>  (323) 
1 - Active Site

>  <alias>  (323) 
C18171-P495

>  <tags>  (323) 
openbind_a71ev2a_c1_scaffolds,BulkDock Fragalysis export,openbind_a71ev2a_c1_knitwork_impure,fragmenstein_placed

>  <distance_score>  (323) 
0.771895

>  <placement_batch>  (323) 
openbind_a71ev2a_c1_knitwork_impure

>  <name>  (323) 
C18171-P495

>  <ref_mols>  (323) 
A0556a,A4874b

>  <smiles>  (323) 
CC(C)(CC(=O)c1cn[nH]c1)CC(F)F

>  <HIPPO Compound ID>  (323) 
5539

>  <HIPPO Pose ID>  (323) 
399680

>  <ref_pdb>  (323) 
A0514b

$$$$
C18173-P495
     RDKit          3D

 13 13  0  0  0  0  0  0  0  0999 V2000
   11.8129   16.0952   21.7535 C   0  0  0  0  0  0  0  0  0  0  0  0
   10.9095   15.1496   20.9696 C   0  0  0  0  0  0  0  0  0  0  0  0
   10.9035   15.5240   19.4872 C   0  0  0  0  0  0  0  0  0  0  0  0
    9.4728   15.1371   21.5141 C   0  0  0  0  0  0  0  0  0  0  0  0
    9.3823   14.6663   22.9693 C   0  0  0  0  0  0  0  0  0  0  0  0
    7.9753   14.1738   23.2831 C   0  0  0  0  0  0  0  0  0  0  0  0
    7.8843   13.3487   24.5517 C   0  0  0  0  0  0  0  0  0  0  0  0
    7.4131   13.8204   25.5850 O   0  0  0  0  0  0  0  0  0  0  0  0
    8.2896   11.9561   24.5086 C   0  0  0  0  0  0  0  0  0  0  0  0
    7.8054   10.9132   25.3211 C   0  0  0  0  0  0  0  0  0  0  0  0
    8.3382    9.7330   25.0063 N   0  0  0  0  0  0  0  0  0  0  0  0
    9.1754   10.0077   23.9945 N   0  0  0  0  0  0  0  0  0  0  0  0
    9.1983   11.3355   23.6768 C   0  0  0  0  0  0  0  0  0  0  0  0
  1  2  1  0
  2  3  1  0
  2  4  1  0
  4  5  1  0
  5  6  1  0
  6  7  1  0
  7  8  2  0
  7  9  1  0
  9 10  1  0
 10 11  2  0
 11 12  1  0
 12 13  1  0
 13  9  2  0
M  END
>  <inchikey>  (324) 
AYEOHXFBHHOWPD-UHFFFAOYSA-N

>  <energy_score>  (324) 
-13.651676

>  <subsites>  (324) 
1 - Active Site

>  <alias>  (324) 
C18173-P495

>  <tags>  (324) 
openbind_a71ev2a_c1_scaffolds,BulkDock Fragalysis export,openbind_a71ev2a_c1_knitwork_impure,fragmenstein_placed

>  <distance_score>  (324) 
0.813354

>  <placement_batch>  (324) 
openbind_a71ev2a_c1_knitwork_impure

>  <name>  (324) 
C18173-P495

>  <ref_mols>  (324) 
A0556a,A4874b

>  <smiles>  (324) 
CC(C)CCCC(=O)c1cn[nH]c1

>  <HIPPO Compound ID>  (324) 
18173

>  <HIPPO Pose ID>  (324) 
399682

>  <ref_pdb>  (324) 
A0514b

$$$$
C3508-P489
     RDKit          3D

 24 26  0  0  0  0  0  0  0  0999 V2000
    4.4935   11.5628    0.5396 C   0  0  0  0  0  0  0  0  0  0  0  0
    3.9206   12.9892    0.6724 C   0  0  0  0  0  0  0  0  0  0  0  0
    3.0457   13.0398    1.9498 C   0  0  0  0  0  0  0  0  0  0  0  0
    3.0096   13.2288   -0.5472 C   0  0  0  0  0  0  0  0  0  0  0  0
    5.0992   14.0154    0.7030 C   0  0  1  0  0  0  0  0  0  0  0  0
    4.7060   15.5054    0.5448 C   0  0  0  0  0  0  0  0  0  0  0  0
    4.7388   15.9579   -0.8256 N   0  0  0  0  0  0  0  0  0  0  0  0
    3.6111   16.4967   -1.7307 C   0  0  0  0  0  0  0  0  0  0  0  0
    2.4933   16.7321   -1.4880 O   0  0  0  0  0  0  0  0  0  0  0  0
    4.2401   16.7353   -3.1520 C   0  0  0  0  0  0  0  0  0  0  0  0
    3.2789   17.1074   -4.3162 C   0  0  0  0  0  0  0  0  0  0  0  0
    3.2476   15.6154   -4.6922 C   0  0  0  0  0  0  0  0  0  0  0  0
    4.6068   15.4744   -3.9847 C   0  0  0  0  0  0  0  0  0  0  0  0
    5.8348   13.8389    1.9359 N   0  0  0  0  0  0  0  0  0  0  0  0
    7.2418   14.2861    2.3249 C   0  0  0  0  0  0  0  0  0  0  0  0
    8.0123   14.9352    1.7477 O   0  0  0  0  0  0  0  0  0  0  0  0
    7.4524   13.8229    3.6681 C   0  0  0  0  0  0  0  0  0  0  0  0
    7.4536   14.6020    4.8327 C   0  0  0  0  0  0  0  0  0  0  0  0
    7.4141   13.8500    5.9322 N   0  0  0  0  0  0  0  0  0  0  0  0
    7.4783   12.5378    5.4818 O   0  0  0  0  0  0  0  0  0  0  0  0
    7.4854   12.5232    4.1218 C   0  0  0  0  0  0  0  0  0  0  0  0
    7.3954   11.2307    3.2646 C   0  0  0  0  0  0  0  0  0  0  0  0
    8.2542   11.0931    2.0324 C   0  0  0  0  0  0  0  0  0  0  0  0
    8.5322   10.2492    3.2391 C   0  0  0  0  0  0  0  0  0  0  0  0
  1  2  1  0
  2  3  1  0
  2  4  1  0
  2  5  1  0
  5  6  1  1
  6  7  1  0
  7  8  1  0
  8  9  2  0
  8 10  1  0
 10 11  1  0
 11 12  1  0
 12 13  1  0
  5 14  1  0
 14 15  1  0
 15 16  2  0
 15 17  1  0
 17 18  1  0
 18 19  2  0
 19 20  1  0
 20 21  1  0
 21 22  1  0
 22 23  1  0
 23 24  1  0
 13 10  1  0
 21 17  2  0
 24 22  1  0
M  END
>  <inchikey>  (325) 
IFQJCHDGIKNYJR-UHFFFAOYSA-N

>  <energy_score>  (325) 
-70.809946

>  <subsites>  (325) 
1 - Active Site,3 - A0541/A/147/1

>  <alias>  (325) 
C3508-P489

>  <tags>  (325) 
openbind_a71ev2a_c1_scaffolds,BulkDock Fragalysis export,openbind_a71ev2a_c1_knitwork_impure,fragmenstein_placed

>  <distance_score>  (325) 
0.987547

>  <placement_batch>  (325) 
openbind_a71ev2a_c1_knitwork_impure

>  <name>  (325) 
C3508-P489

>  <ref_mols>  (325) 
A0541a,A4855a

>  <smiles>  (325) 
CC(C)(C)[C@@H](CNC(=O)C1CCC1)NC(=O)c1cnoc1C1CC1

>  <HIPPO Compound ID>  (325) 
8145

>  <HIPPO Pose ID>  (325) 
399798

>  <ref_pdb>  (325) 
A0514b

$$$$
C7529-P323
     RDKit          3D

 13 13  0  0  0  0  0  0  0  0999 V2000
   10.6090   13.3796   25.1852 O   0  0  0  0  0  0  0  0  0  0  0  0
    9.6364   13.3553   24.5214 C   0  0  0  0  0  0  0  0  0  0  0  0
    9.0810   14.4070   23.4851 N   0  0  0  0  0  0  0  0  0  0  0  0
    9.5424   15.6731   23.1522 N   0  0  0  0  0  0  0  0  0  0  0  0
   10.9690   15.8719   23.4273 C   0  0  0  0  0  0  0  0  0  0  0  0
   11.8949   15.0943   22.4972 C   0  0  0  0  0  0  0  0  0  0  0  0
   11.5998   15.4194   21.0397 C   0  0  0  0  0  0  0  0  0  0  0  0
   10.1158   15.2492   20.7410 C   0  0  0  0  0  0  0  0  0  0  0  0
    9.2491   16.0138   21.7434 C   0  0  0  0  0  0  0  0  0  0  0  0
    8.6703   12.1283   24.5645 C   0  0  0  0  0  0  0  0  0  0  0  0
    9.2497   11.0137   24.0378 F   0  0  0  0  0  0  0  0  0  0  0  0
    8.3224   11.8050   25.8431 F   0  0  0  0  0  0  0  0  0  0  0  0
    7.1715   12.4124   23.7038 Cl  0  0  0  0  0  0  0  0  0  0  0  0
  1  2  2  0
  2  3  1  0
  3  4  1  0
  4  5  1  0
  5  6  1  0
  6  7  1  0
  7  8  1  0
  8  9  1  0
  2 10  1  0
 10 11  1  0
 10 12  1  0
 10 13  1  0
  9  4  1  0
M  END
>  <inchikey>  (326) 
TZTAWMMMGCPPTP-UHFFFAOYSA-N

>  <energy_score>  (326) 
-0.043458

>  <subsites>  (326) 
1 - Active Site

>  <alias>  (326) 
C7529-P323

>  <tags>  (326) 
openbind_a71ev2a_c1_scaffolds,BulkDock Fragalysis export,openbind_a71ev2a_c1_knitwork_impure,fragmenstein_placed

>  <distance_score>  (326) 
0.944547

>  <placement_batch>  (326) 
openbind_a71ev2a_c1_knitwork_impure

>  <name>  (326) 
C7529-P323

>  <ref_mols>  (326) 
A1445a,A4365a

>  <smiles>  (326) 
O=C(NN1CCCCC1)C(F)(F)Cl

>  <HIPPO Compound ID>  (326) 
42149

>  <HIPPO Pose ID>  (326) 
400289

>  <ref_pdb>  (326) 
A0514b

$$$$
C41823-P124
     RDKit          3D

 16 18  0  0  0  0  0  0  0  0999 V2000
   10.2350    8.4155   23.0431 Br  0  0  0  0  0  0  0  0  0  0  0  0
   10.1160   10.1154   23.7806 C   0  0  0  0  0  0  0  0  0  0  0  0
   11.1831   10.9859   23.6035 C   0  0  0  0  0  0  0  0  0  0  0  0
   11.1524   12.2243   24.2132 C   0  0  0  0  0  0  0  0  0  0  0  0
    9.9946   12.6084   24.8552 C   0  0  0  0  0  0  0  0  0  0  0  0
    8.9366   11.7239   25.0632 C   0  0  0  0  0  0  0  0  0  0  0  0
    9.0015   10.4567   24.5367 C   0  0  0  0  0  0  0  0  0  0  0  0
    7.9557   12.2615   25.9007 N   0  0  0  0  0  0  0  0  0  0  0  0
    6.5775   11.8144   25.7826 C   0  0  0  0  0  0  0  0  0  0  0  0
    5.5564   12.5941   26.5619 C   0  0  0  0  0  0  0  0  0  0  0  0
    5.2592   12.4879   27.8434 N   0  0  0  0  0  0  0  0  0  0  0  0
    4.2844   13.4228   28.0784 C   0  0  0  0  0  0  0  0  0  0  0  0
    3.9773   14.1059   26.9275 C   0  0  0  0  0  0  0  0  0  0  0  0
    4.7828   13.5649   25.9652 N   0  0  0  0  0  0  0  0  0  0  0  0
    8.2115   13.7006   25.8528 C   0  0  0  0  0  0  0  0  0  0  0  0
    9.6734   13.9273   25.4590 C   0  0  0  0  0  0  0  0  0  0  0  0
  1  2  1  0
  2  3  2  0
  3  4  1  0
  4  5  2  0
  5  6  1  0
  6  7  2  0
  6  8  1  0
  8  9  1  0
  9 10  1  0
 10 11  2  0
 11 12  1  0
 12 13  2  0
 13 14  1  0
  8 15  1  0
 15 16  1  0
  7  2  1  0
 14 10  1  0
 16  5  1  0
M  END
>  <inchikey>  (327) 
TZIRKKPJSKSKFV-UHFFFAOYSA-N

>  <energy_score>  (327) 
-17.165443

>  <subsites>  (327) 
1 - Active Site

>  <alias>  (327) 
C41823-P124

>  <tags>  (327) 
openbind_a71ev2a_c1_scaffolds,BulkDock Fragalysis export,openbind_a71ev2a_c1_knitwork_impure,fragmenstein_placed

>  <distance_score>  (327) 
0.906124

>  <placement_batch>  (327) 
openbind_a71ev2a_c1_knitwork_impure

>  <name>  (327) 
C41823-P124

>  <ref_mols>  (327) 
A2972a,A1778a

>  <smiles>  (327) 
Brc1ccc2c(c1)N(Cc1ncc[nH]1)CC2

>  <HIPPO Compound ID>  (327) 
31998

>  <HIPPO Pose ID>  (327) 
400324

>  <ref_pdb>  (327) 
A0514b

$$$$
C41834-P137
     RDKit          3D

 18 20  0  0  0  0  0  0  0  0999 V2000
    6.4278   13.2691   27.5489 O   0  0  0  0  0  0  0  0  0  0  0  0
    6.6834   12.5927   26.2912 S   0  0  0  0  0  0  0  0  0  0  0  0
    6.0848   11.2931   26.0647 O   0  0  0  0  0  0  0  0  0  0  0  0
    6.0219   13.7365   25.1000 C   0  0  0  0  0  0  0  0  0  0  0  0
    6.6945   14.3957   24.1638 N   0  0  0  0  0  0  0  0  0  0  0  0
    5.7829   15.2452   23.5864 C   0  0  0  0  0  0  0  0  0  0  0  0
    4.5501   15.1099   24.1790 C   0  0  0  0  0  0  0  0  0  0  0  0
    4.7158   14.1505   25.1363 N   0  0  0  0  0  0  0  0  0  0  0  0
    8.3690   12.5186   26.0925 N   0  0  0  0  0  0  0  0  0  0  0  0
    9.0634   13.8493   25.9644 C   0  0  0  0  0  0  0  0  0  0  0  0
    9.8453   13.8149   24.6419 C   0  0  0  0  0  0  0  0  0  0  0  0
    9.7524   12.3845   24.2434 C   0  0  0  0  0  0  0  0  0  0  0  0
   10.3684   11.7687   23.1760 C   0  0  0  0  0  0  0  0  0  0  0  0
   10.0895   10.4190   22.9574 C   0  0  0  0  0  0  0  0  0  0  0  0
    9.2585    9.7071   23.8133 C   0  0  0  0  0  0  0  0  0  0  0  0
    9.0627    8.4029   23.5908 F   0  0  0  0  0  0  0  0  0  0  0  0
    8.6220   10.3347   24.8693 C   0  0  0  0  0  0  0  0  0  0  0  0
    8.8612   11.6852   25.0477 C   0  0  0  0  0  0  0  0  0  0  0  0
  1  2  2  0
  2  3  2  0
  2  4  1  0
  4  5  2  0
  5  6  1  0
  6  7  2  0
  7  8  1  0
  2  9  1  0
  9 10  1  0
 10 11  1  0
 11 12  1  0
 12 13  2  0
 13 14  1  0
 14 15  2  0
 15 16  1  0
 15 17  1  0
 17 18  2  0
  8  4  1  0
 18  9  1  0
 18 12  1  0
M  END
>  <inchikey>  (328) 
OLNCYPXEOMYYNS-UHFFFAOYSA-N

>  <energy_score>  (328) 
-36.787592

>  <subsites>  (328) 
1 - Active Site

>  <alias>  (328) 
C41834-P137

>  <tags>  (328) 
openbind_a71ev2a_c1_scaffolds,BulkDock Fragalysis export,openbind_a71ev2a_c1_knitwork_impure,fragmenstein_placed

>  <distance_score>  (328) 
0.9626

>  <placement_batch>  (328) 
openbind_a71ev2a_c1_knitwork_impure

>  <name>  (328) 
C41834-P137

>  <ref_mols>  (328) 
A2972a,A1778a

>  <smiles>  (328) 
O=S(=O)(c1ncc[nH]1)N1CCc2ccc(F)cc21

>  <HIPPO Compound ID>  (328) 
7655

>  <HIPPO Pose ID>  (328) 
400343

>  <ref_pdb>  (328) 
A0514b

$$$$
C8138-P440
     RDKit          3D

 15 15  0  0  0  0  0  0  0  0999 V2000
   11.4405   15.5753   21.6351 C   0  0  0  0  0  0  0  0  0  0  0  0
   11.3769   14.3851   22.5763 C   0  0  0  0  0  0  0  0  0  0  0  0
   10.2178   14.3845   23.5886 C   0  0  1  0  0  0  0  0  0  0  0  0
   10.5294   15.2754   24.7843 C   0  0  0  0  0  0  0  0  0  0  0  0
    8.8352   14.7110   22.9949 C   0  0  0  0  0  0  0  0  0  0  0  0
    7.8794   13.5308   22.9459 C   0  0  0  0  0  0  0  0  0  0  0  0
    7.2612   13.2578   21.9115 O   0  0  0  0  0  0  0  0  0  0  0  0
    7.6624   12.7005   24.2154 C   0  0  2  0  0  0  0  0  0  0  0  0
    8.2268   13.2471   25.3954 O   0  0  0  0  0  0  0  0  0  0  0  0
    8.1021   11.2597   23.9419 C   0  0  0  0  0  0  0  0  0  0  0  0
    8.0192   10.3620   25.1783 C   0  0  0  0  0  0  0  0  0  0  0  0
    8.9602    9.1729   25.0516 C   0  0  0  0  0  0  0  0  0  0  0  0
    9.0505    8.6845   23.6958 N   0  0  0  0  0  0  0  0  0  0  0  0
    9.6295    9.6420   22.7867 C   0  0  0  0  0  0  0  0  0  0  0  0
    9.4730   11.0777   23.2695 C   0  0  0  0  0  0  0  0  0  0  0  0
  1  2  1  0
  2  3  1  0
  3  4  1  1
  3  5  1  0
  5  6  1  0
  6  7  2  0
  6  8  1  0
  8  9  1  1
  8 10  1  0
 10 11  1  0
 11 12  1  0
 12 13  1  0
 13 14  1  0
 14 15  1  0
 15 10  1  0
M  END
>  <inchikey>  (329) 
AJANJNXHNMDIHZ-UHFFFAOYSA-N

>  <energy_score>  (329) 
-14.188579

>  <subsites>  (329) 
1 - Active Site

>  <alias>  (329) 
C8138-P440

>  <tags>  (329) 
openbind_a71ev2a_c1_scaffolds,BulkDock Fragalysis export,openbind_a71ev2a_c1_knitwork_impure,fragmenstein_placed

>  <distance_score>  (329) 
0.867191

>  <placement_batch>  (329) 
openbind_a71ev2a_c1_knitwork_impure

>  <name>  (329) 
C8138-P440

>  <ref_mols>  (329) 
A4707a,A0719a

>  <smiles>  (329) 
CC[C@@H](C)CC(=O)[C@H](O)C1CCNCC1

>  <HIPPO Compound ID>  (329) 
13648

>  <HIPPO Pose ID>  (329) 
401138

>  <ref_pdb>  (329) 
A1145a

$$$$
C8155-P440
     RDKit          3D

 16 16  0  0  0  0  0  0  0  0999 V2000
    9.4405    8.6821   22.5703 C   0  0  0  0  0  0  0  0  0  0  0  0
    8.8276    9.2267   23.7903 C   0  0  0  0  0  0  0  0  0  0  0  0
    9.5528    9.9170   24.6654 C   0  0  0  0  0  0  0  0  0  0  0  0
    8.9963   10.4737   25.8477 C   0  0  0  0  0  0  0  0  0  0  0  0
    7.9509   11.3004   25.9606 C   0  0  0  0  0  0  0  0  0  0  0  0
    7.1609   11.9082   24.8655 C   0  0  0  0  0  0  0  0  0  0  0  0
    7.8470   13.1633   24.5173 N   0  0  0  0  0  0  0  0  0  0  0  0
    8.5368   13.1044   22.9877 S   0  0  0  0  0  0  0  0  0  0  0  0
    7.4139   13.0330   22.0796 O   0  0  0  0  0  0  0  0  0  0  0  0
    9.6140   12.1541   22.9741 O   0  0  0  0  0  0  0  0  0  0  0  0
    9.1702   14.6591   22.9815 N   0  0  0  0  0  0  0  0  0  0  0  0
   10.4592   14.8435   23.6833 C   0  0  0  0  0  0  0  0  0  0  0  0
   11.6503   14.5221   22.7859 C   0  0  0  0  0  0  0  0  0  0  0  0
   11.5802   15.2569   21.4525 C   0  0  0  0  0  0  0  0  0  0  0  0
   10.2413   15.0168   20.7701 C   0  0  0  0  0  0  0  0  0  0  0  0
    9.0985   15.3912   21.6970 C   0  0  0  0  0  0  0  0  0  0  0  0
  1  2  1  0
  2  3  2  3
  3  4  1  0
  4  5  2  3
  5  6  1  0
  6  7  1  0
  7  8  1  0
  8  9  2  0
  8 10  2  0
  8 11  1  0
 11 12  1  0
 12 13  1  0
 13 14  1  0
 14 15  1  0
 15 16  1  0
 16 11  1  0
M  END
>  <inchikey>  (330) 
JLLXGDVGXITSBH-UHFFFAOYSA-N

>  <energy_score>  (330) 
-33.455497

>  <subsites>  (330) 
1 - Active Site

>  <alias>  (330) 
C8155-P440

>  <tags>  (330) 
openbind_a71ev2a_c1_scaffolds,BulkDock Fragalysis export,openbind_a71ev2a_c1_knitwork_impure,fragmenstein_placed

>  <distance_score>  (330) 
0.973354

>  <placement_batch>  (330) 
openbind_a71ev2a_c1_knitwork_impure

>  <name>  (330) 
C8155-P440

>  <ref_mols>  (330) 
A4707a,A0719a

>  <smiles>  (330) 
CC=CC=CCNS(=O)(=O)N1CCCCC1

>  <HIPPO Compound ID>  (330) 
40316

>  <HIPPO Pose ID>  (330) 
401149

>  <ref_pdb>  (330) 
A1145a

$$$$
C8172-P440
     RDKit          3D

 15 15  0  0  0  0  0  0  0  0999 V2000
   10.7372   10.0377   25.4089 C   0  0  0  0  0  0  0  0  0  0  0  0
    9.6479   10.5353   25.3727 C   0  0  0  0  0  0  0  0  0  0  0  0
    8.3412   11.0974   25.0258 C   0  0  0  0  0  0  0  0  0  0  0  0
    7.8073   10.2108   23.9236 C   0  0  0  0  0  0  0  0  0  0  0  0
    7.3710   11.0503   26.2071 C   0  0  0  0  0  0  0  0  0  0  0  0
    8.5034   12.5327   24.6645 N   0  0  0  0  0  0  0  0  0  0  0  0
    8.8188   12.8524   23.0565 S   0  0  0  0  0  0  0  0  0  0  0  0
    7.5703   12.7419   22.3411 O   0  0  0  0  0  0  0  0  0  0  0  0
    9.9784   12.0639   22.7379 O   0  0  0  0  0  0  0  0  0  0  0  0
    9.2510   14.4735   23.1507 N   0  0  0  0  0  0  0  0  0  0  0  0
   10.5912   14.7946   23.6914 C   0  0  0  0  0  0  0  0  0  0  0  0
   11.6949   14.6460   22.6519 C   0  0  0  0  0  0  0  0  0  0  0  0
   11.3866   15.4087   21.3724 C   0  0  0  0  0  0  0  0  0  0  0  0
   10.0028   15.0550   20.8457 C   0  0  0  0  0  0  0  0  0  0  0  0
    8.9477   15.2681   21.9234 C   0  0  0  0  0  0  0  0  0  0  0  0
  1  2  3  0
  2  3  1  0
  3  4  1  0
  3  5  1  0
  3  6  1  0
  6  7  1  0
  7  8  2  0
  7  9  2  0
  7 10  1  0
 10 11  1  0
 11 12  1  0
 12 13  1  0
 13 14  1  0
 14 15  1  0
 15 10  1  0
M  END
>  <inchikey>  (331) 
DVLVUUCTVLQLBO-UHFFFAOYSA-N

>  <energy_score>  (331) 
-32.806908

>  <subsites>  (331) 
1 - Active Site

>  <alias>  (331) 
C8172-P440

>  <tags>  (331) 
openbind_a71ev2a_c1_scaffolds,BulkDock Fragalysis export,openbind_a71ev2a_c1_knitwork_impure,fragmenstein_placed

>  <distance_score>  (331) 
0.886574

>  <placement_batch>  (331) 
openbind_a71ev2a_c1_knitwork_impure

>  <name>  (331) 
C8172-P440

>  <ref_mols>  (331) 
A4707a,A0719a

>  <smiles>  (331) 
C#CC(C)(C)NS(=O)(=O)N1CCCCC1

>  <HIPPO Compound ID>  (331) 
5407

>  <HIPPO Pose ID>  (331) 
401160

>  <ref_pdb>  (331) 
A1145a

$$$$
C2375-P494
     RDKit          3D

 12 12  0  0  0  0  0  0  0  0999 V2000
    6.9773   13.6298   24.2082 C   0  0  0  0  0  0  0  0  0  0  0  0
    8.1532   13.0338   24.4748 C   0  0  0  0  0  0  0  0  0  0  0  0
    8.2018   11.5470   24.6835 C   0  0  0  0  0  0  0  0  0  0  0  0
    9.4943   13.7838   24.5144 C   0  0  1  0  0  0  0  0  0  0  0  0
    9.5989   14.6389   25.7887 C   0  0  0  0  0  0  0  0  0  0  0  0
   10.5109   12.8602   24.5897 F   0  0  0  0  0  0  0  0  0  0  0  0
    9.7645   14.7131   23.2677 C   0  0  1  0  0  0  0  0  0  0  0  0
   11.2699   15.0125   23.1098 C   0  0  0  0  0  0  0  0  0  0  0  0
   11.5465   15.9560   21.9405 C   0  0  0  0  0  0  0  0  0  0  0  0
   10.8592   15.4766   20.6696 C   0  0  0  0  0  0  0  0  0  0  0  0
    9.3876   15.1955   20.9367 C   0  0  0  0  0  0  0  0  0  0  0  0
    9.2376   14.1843   21.9888 N   0  0  0  0  0  0  0  0  0  0  0  0
  1  2  2  0
  2  3  1  0
  2  4  1  0
  4  5  1  1
  4  6  1  0
  4  7  1  0
  7  8  1  6
  8  9  1  0
  9 10  1  0
 10 11  1  0
 11 12  1  0
 12  7  1  0
M  END
>  <inchikey>  (332) 
TWMBIPLWGSZODL-UHFFFAOYSA-N

>  <energy_score>  (332) 
-27.68373

>  <subsites>  (332) 
1 - Active Site

>  <alias>  (332) 
C2375-P494

>  <tags>  (332) 
openbind_a71ev2a_c1_scaffolds,BulkDock Fragalysis export,openbind_a71ev2a_c1_knitwork_impure,fragmenstein_placed

>  <distance_score>  (332) 
0.8815

>  <placement_batch>  (332) 
openbind_a71ev2a_c1_knitwork_impure

>  <name>  (332) 
C2375-P494

>  <ref_mols>  (332) 
A4874a,A0875a

>  <smiles>  (332) 
C=C(C)[C@@](C)(F)[C@H]1CCCCN1

>  <HIPPO Compound ID>  (332) 
6050

>  <HIPPO Pose ID>  (332) 
401169

>  <ref_pdb>  (332) 
A1145a

$$$$
C1791-P217
     RDKit          3D

 15 17  0  0  0  0  0  0  0  0999 V2000
    7.5817   10.2633   25.3367 C   0  0  0  0  0  0  0  0  0  0  0  0
    8.4973    9.6635   24.2420 C   0  0  0  0  0  0  0  0  0  0  0  0
    9.4986   10.6104   23.5807 C   0  0  0  0  0  0  0  0  0  0  0  0
    9.0272   11.9904   23.6717 C   0  0  0  0  0  0  0  0  0  0  0  0
    9.7022   13.0094   23.0997 O   0  0  0  0  0  0  0  0  0  0  0  0
    8.9516   14.1079   23.4255 C   0  0  0  0  0  0  0  0  0  0  0  0
    9.4940   15.4480   23.0614 C   0  0  0  0  0  0  0  0  0  0  0  0
   10.9151   15.6383   23.6038 C   0  0  0  0  0  0  0  0  0  0  0  0
   11.9892   15.0674   22.6875 C   0  0  0  0  0  0  0  0  0  0  0  0
   11.8428   15.5641   21.3273 N   0  0  0  0  0  0  0  0  0  0  0  0
   10.5553   15.1752   20.7621 C   0  0  0  0  0  0  0  0  0  0  0  0
    9.3933   15.7500   21.5641 C   0  0  0  0  0  0  0  0  0  0  0  0
    7.8654   13.8392   24.1302 N   0  0  0  0  0  0  0  0  0  0  0  0
    7.9453   12.4955   24.3305 C   0  0  0  0  0  0  0  0  0  0  0  0
    7.0289   11.6837   25.1366 C   0  0  0  0  0  0  0  0  0  0  0  0
  1  2  1  0
  2  3  1  0
  3  4  1  0
  4  5  1  0
  5  6  1  0
  6  7  1  0
  7  8  1  0
  8  9  1  0
  9 10  1  0
 10 11  1  0
 11 12  1  0
  6 13  2  0
 13 14  1  0
 14 15  1  0
 15  1  1  0
 14  4  2  0
 12  7  1  0
M  END
>  <inchikey>  (333) 
ZGJPKOODEIMJSO-UHFFFAOYSA-N

>  <energy_score>  (333) 
-43.343955

>  <subsites>  (333) 
1 - Active Site

>  <alias>  (333) 
C1791-P217

>  <tags>  (333) 
openbind_a71ev2a_c1_scaffolds,BulkDock Fragalysis export,openbind_a71ev2a_c1_knitwork_impure,fragmenstein_placed

>  <distance_score>  (333) 
0.942496

>  <placement_batch>  (333) 
openbind_a71ev2a_c1_knitwork_impure

>  <name>  (333) 
C1791-P217

>  <ref_mols>  (333) 
A3623a,A3557a

>  <smiles>  (333) 
C1CCc2oc(C3CCNCC3)nc2C1

>  <HIPPO Compound ID>  (333) 
1807

>  <HIPPO Pose ID>  (333) 
402049

>  <ref_pdb>  (333) 
A1145a

$$$$
C8131-P618
     RDKit          3D

 13 13  0  0  0  0  0  0  0  0999 V2000
   11.8199   15.2162   23.3476 C   0  0  0  0  0  0  0  0  0  0  0  0
   10.6680   15.3590   23.0442 C   0  0  0  0  0  0  0  0  0  0  0  0
    9.2663   15.5257   22.6460 C   0  0  0  0  0  0  0  0  0  0  0  0
    8.4526   14.2849   22.9015 C   0  0  0  0  0  0  0  0  0  0  0  0
    7.6685   13.8330   22.0563 O   0  0  0  0  0  0  0  0  0  0  0  0
    8.5222   13.6720   24.2994 C   0  0  1  0  0  0  0  0  0  0  0  0
    7.3665   14.1291   24.9979 O   0  0  0  0  0  0  0  0  0  0  0  0
    8.5522   12.1500   24.1589 C   0  0  0  0  0  0  0  0  0  0  0  0
    7.8087   11.4398   25.2679 C   0  0  0  0  0  0  0  0  0  0  0  0
    8.0591    9.9518   25.2834 C   0  0  0  0  0  0  0  0  0  0  0  0
    8.8003    9.3497   24.2063 N   0  0  0  0  0  0  0  0  0  0  0  0
    9.9482   10.0840   23.7190 C   0  0  0  0  0  0  0  0  0  0  0  0
    9.9574   11.5979   23.9635 C   0  0  0  0  0  0  0  0  0  0  0  0
  1  2  3  0
  2  3  1  0
  3  4  1  0
  4  5  2  0
  4  6  1  0
  6  7  1  1
  6  8  1  0
  8  9  1  0
  9 10  1  0
 10 11  1  0
 11 12  1  0
 12 13  1  0
 13  8  1  0
M  END
>  <inchikey>  (334) 
WZIGSCUCYLFSGJ-UHFFFAOYSA-N

>  <energy_score>  (334) 
-19.729482

>  <subsites>  (334) 
1 - Active Site

>  <alias>  (334) 
C8131-P618

>  <tags>  (334) 
openbind_a71ev2a_c1_scaffolds,BulkDock Fragalysis export,openbind_a71ev2a_c1_knitwork_impure,fragmenstein_placed

>  <distance_score>  (334) 
0.977152

>  <placement_batch>  (334) 
openbind_a71ev2a_c1_knitwork_impure

>  <name>  (334) 
C8131-P618

>  <ref_mols>  (334) 
A5425b,A0719a

>  <smiles>  (334) 
C#CCC(=O)[C@@H](O)C1CCNCC1

>  <HIPPO Compound ID>  (334) 
11248

>  <HIPPO Pose ID>  (334) 
402069

>  <ref_pdb>  (334) 
A1145a

$$$$
C8160-P618
     RDKit          3D

 14 14  0  0  0  0  0  0  0  0999 V2000
    9.0047    9.5661   24.5184 C   0  0  0  0  0  0  0  0  0  0  0  0
    8.6432   10.8957   25.1613 C   0  0  0  0  0  0  0  0  0  0  0  0
    7.2694   10.8501   25.8102 C   0  0  0  0  0  0  0  0  0  0  0  0
    8.8872   12.0036   24.1478 C   0  0  0  0  0  0  0  0  0  0  0  0
    8.2381   13.2596   24.5445 N   0  0  0  0  0  0  0  0  0  0  0  0
    7.8591   14.2747   23.2583 S   0  0  0  0  0  0  0  0  0  0  0  0
    7.1591   13.4575   22.2929 O   0  0  0  0  0  0  0  0  0  0  0  0
    7.2656   15.4470   23.8471 O   0  0  0  0  0  0  0  0  0  0  0  0
    9.3890   14.6277   22.6739 N   0  0  0  0  0  0  0  0  0  0  0  0
   10.3246   15.2604   23.6300 C   0  0  0  0  0  0  0  0  0  0  0  0
   11.7315   15.1625   23.0509 C   0  0  0  0  0  0  0  0  0  0  0  0
   11.8113   15.9027   21.7202 C   0  0  0  0  0  0  0  0  0  0  0  0
   10.7599   15.3690   20.7535 C   0  0  0  0  0  0  0  0  0  0  0  0
    9.3687   15.3758   21.3807 C   0  0  0  0  0  0  0  0  0  0  0  0
  1  2  1  0
  2  3  1  0
  2  4  1  0
  4  5  1  0
  5  6  1  0
  6  7  2  0
  6  8  2  0
  6  9  1  0
  9 10  1  0
 10 11  1  0
 11 12  1  0
 12 13  1  0
 13 14  1  0
 14  9  1  0
M  END
>  <inchikey>  (335) 
WFPMJUJXZODHSD-UHFFFAOYSA-N

>  <energy_score>  (335) 
-48.936194

>  <subsites>  (335) 
1 - Active Site

>  <alias>  (335) 
C8160-P618

>  <tags>  (335) 
openbind_a71ev2a_c1_scaffolds,BulkDock Fragalysis export,openbind_a71ev2a_c1_knitwork_impure,fragmenstein_placed

>  <distance_score>  (335) 
0.738076

>  <placement_batch>  (335) 
openbind_a71ev2a_c1_knitwork_impure

>  <name>  (335) 
C8160-P618

>  <ref_mols>  (335) 
A5425b,A0719a

>  <smiles>  (335) 
CC(C)CNS(=O)(=O)N1CCCCC1

>  <HIPPO Compound ID>  (335) 
40319

>  <HIPPO Pose ID>  (335) 
402089

>  <ref_pdb>  (335) 
A1145a

$$$$
C8169-P618
     RDKit          3D

 14 14  0  0  0  0  0  0  0  0999 V2000
    7.1856   13.3321   22.3602 O   0  0  0  0  0  0  0  0  0  0  0  0
    7.8678   14.1867   23.3059 S   0  0  0  0  0  0  0  0  0  0  0  0
    7.2410   15.3455   23.8871 O   0  0  0  0  0  0  0  0  0  0  0  0
    8.3032   13.2028   24.5954 N   0  0  0  0  0  0  0  0  0  0  0  0
    9.0195   11.9707   24.2239 C   0  0  0  0  0  0  0  0  0  0  0  0
    8.4304   10.8142   25.0008 C   0  0  0  0  0  0  0  0  0  0  0  0
    8.7483    9.4699   24.3961 C   0  0  0  0  0  0  0  0  0  0  0  0
   10.4168    9.2004   23.9481 Cl  0  0  0  0  0  0  0  0  0  0  0  0
    9.3775   14.5873   22.6996 N   0  0  0  0  0  0  0  0  0  0  0  0
   10.3099   15.2492   23.6382 C   0  0  0  0  0  0  0  0  0  0  0  0
   11.7114   15.1704   23.0432 C   0  0  0  0  0  0  0  0  0  0  0  0
   11.7631   15.9005   21.7055 C   0  0  0  0  0  0  0  0  0  0  0  0
   10.7052   15.3465   20.7565 C   0  0  0  0  0  0  0  0  0  0  0  0
    9.3224   15.3277   21.4036 C   0  0  0  0  0  0  0  0  0  0  0  0
  1  2  2  0
  2  3  2  0
  2  4  1  0
  4  5  1  0
  5  6  1  0
  6  7  1  0
  7  8  1  0
  2  9  1  0
  9 10  1  0
 10 11  1  0
 11 12  1  0
 12 13  1  0
 13 14  1  0
 14  9  1  0
M  END
>  <inchikey>  (336) 
FXGFNCCXOGIGTL-UHFFFAOYSA-N

>  <energy_score>  (336) 
-70.190543

>  <subsites>  (336) 
1 - Active Site

>  <alias>  (336) 
C8169-P618

>  <tags>  (336) 
openbind_a71ev2a_c1_scaffolds,BulkDock Fragalysis export,openbind_a71ev2a_c1_knitwork_impure,fragmenstein_placed

>  <distance_score>  (336) 
0.601772

>  <placement_batch>  (336) 
openbind_a71ev2a_c1_knitwork_impure

>  <name>  (336) 
C8169-P618

>  <ref_mols>  (336) 
A5425b,A0719a

>  <smiles>  (336) 
O=S(=O)(NCCCCl)N1CCCCC1

>  <HIPPO Compound ID>  (336) 
3470

>  <HIPPO Pose ID>  (336) 
402093

>  <ref_pdb>  (336) 
A1145a

$$$$
C8178-P618
     RDKit          3D

 21 21  0  0  0  0  0  0  0  0999 V2000
    3.1139   14.6093   20.4974 C   0  0  0  0  0  0  0  0  0  0  0  0
    3.6611   13.4407   21.2874 C   0  0  0  0  0  0  0  0  0  0  0  0
    5.0768   13.6039   21.4651 O   0  0  0  0  0  0  0  0  0  0  0  0
    5.4737   14.1080   22.6632 C   0  0  0  0  0  0  0  0  0  0  0  0
    4.7638   14.5070   23.4851 O   0  0  0  0  0  0  0  0  0  0  0  0
    6.9780   13.9193   22.6695 N   0  0  0  0  0  0  0  0  0  0  0  0
    7.9784   14.2756   23.6782 C   0  0  0  0  0  0  0  0  0  0  0  0
    9.2168   14.4978   22.8180 N   0  0  0  0  0  0  0  0  0  0  0  0
   10.4542   14.6750   23.6012 C   0  0  0  0  0  0  0  0  0  0  0  0
   11.6956   14.7410   22.7108 C   0  0  0  0  0  0  0  0  0  0  0  0
   11.5813   15.8171   21.6444 C   0  0  0  0  0  0  0  0  0  0  0  0
   10.2638   15.6736   20.8988 C   0  0  0  0  0  0  0  0  0  0  0  0
    9.0840   15.6312   21.8743 C   0  0  0  0  0  0  0  0  0  0  0  0
    8.1382   13.1066   24.7151 C   0  0  0  0  0  0  0  0  0  0  0  0
    8.5749   11.9658   24.1123 F   0  0  0  0  0  0  0  0  0  0  0  0
    6.9926   12.7848   25.3488 F   0  0  0  0  0  0  0  0  0  0  0  0
    9.0411   13.3824   25.6894 F   0  0  0  0  0  0  0  0  0  0  0  0
    7.5193   15.4316   24.6134 C   0  0  0  0  0  0  0  0  0  0  0  0
    7.2413   16.5656   23.9307 F   0  0  0  0  0  0  0  0  0  0  0  0
    8.5063   15.7420   25.4923 F   0  0  0  0  0  0  0  0  0  0  0  0
    6.4404   15.1437   25.3688 F   0  0  0  0  0  0  0  0  0  0  0  0
  1  2  1  0
  2  3  1  0
  3  4  1  0
  4  5  2  0
  4  6  1  0
  6  7  1  0
  7  8  1  0
  8  9  1  0
  9 10  1  0
 10 11  1  0
 11 12  1  0
 12 13  1  0
  7 14  1  0
 14 15  1  0
 14 16  1  0
 14 17  1  0
  7 18  1  0
 18 19  1  0
 18 20  1  0
 18 21  1  0
 13  8  1  0
M  END
>  <inchikey>  (337) 
UIVUJIQVOXNKGD-UHFFFAOYSA-N

>  <energy_score>  (337) 
-33.598688

>  <subsites>  (337) 
1 - Active Site

>  <alias>  (337) 
C8178-P618

>  <tags>  (337) 
openbind_a71ev2a_c1_scaffolds,BulkDock Fragalysis export,openbind_a71ev2a_c1_knitwork_impure,fragmenstein_placed

>  <distance_score>  (337) 
0.883602

>  <placement_batch>  (337) 
openbind_a71ev2a_c1_knitwork_impure

>  <name>  (337) 
C8178-P618

>  <ref_mols>  (337) 
A5425b,A0719a

>  <smiles>  (337) 
CCOC(=O)NC(N1CCCCC1)(C(F)(F)F)C(F)(F)F

>  <HIPPO Compound ID>  (337) 
4684

>  <HIPPO Pose ID>  (337) 
402101

>  <ref_pdb>  (337) 
A1145a

$$$$
C723-P344
     RDKit          3D

 14 16  0  0  0  0  0  0  0  0999 V2000
    8.0107   11.7191   25.0538 C   0  0  0  0  0  0  0  0  0  0  0  0
    8.3510   12.9959   24.6316 C   0  0  0  0  0  0  0  0  0  0  0  0
    9.2341   13.1511   23.5658 C   0  0  0  0  0  0  0  0  0  0  0  0
    9.5711   14.4184   23.1178 N   0  0  0  0  0  0  0  0  0  0  0  0
   10.5178   15.1558   23.9393 C   0  0  0  0  0  0  0  0  0  0  0  0
   11.8689   15.1805   23.2484 C   0  0  0  0  0  0  0  0  0  0  0  0
   11.7330   15.9461   21.9446 C   0  0  0  0  0  0  0  0  0  0  0  0
   10.7232   15.2902   21.0325 C   0  0  0  0  0  0  0  0  0  0  0  0
   10.4755   15.9762   19.6983 C   0  0  0  0  0  0  0  0  0  0  0  0
   11.2545   14.7181   19.7198 C   0  0  0  0  0  0  0  0  0  0  0  0
    9.4503   14.7676   21.6941 C   0  0  0  0  0  0  0  0  0  0  0  0
    9.7601   11.9953   23.0087 C   0  0  0  0  0  0  0  0  0  0  0  0
    9.3716   10.7540   23.4944 C   0  0  0  0  0  0  0  0  0  0  0  0
    8.5077   10.5901   24.5149 N   0  0  0  0  0  0  0  0  0  0  0  0
  1  2  2  0
  2  3  1  0
  3  4  1  0
  4  5  1  0
  5  6  1  0
  6  7  1  0
  7  8  1  0
  8  9  1  0
  9 10  1  0
  8 11  1  0
  3 12  2  0
 12 13  1  0
 13 14  2  0
 14  1  1  0
 11  4  1  0
 10  8  1  0
M  END
>  <inchikey>  (338) 
RZWWAVWMGNUJKM-UHFFFAOYSA-N

>  <energy_score>  (338) 
-10.798953

>  <subsites>  (338) 
1 - Active Site

>  <alias>  (338) 
C723-P344

>  <tags>  (338) 
openbind_a71ev2a_c1_scaffolds,BulkDock Fragalysis export,openbind_a71ev2a_c1_knitwork_impure,fragmenstein_placed

>  <distance_score>  (338) 
0.891587

>  <placement_batch>  (338) 
openbind_a71ev2a_c1_knitwork_impure

>  <name>  (338) 
C723-P344

>  <ref_mols>  (338) 
A4274b,A1140a

>  <smiles>  (338) 
c1cc(N2CCCC3(CC3)C2)ccn1

>  <HIPPO Compound ID>  (338) 
12356

>  <HIPPO Pose ID>  (338) 
402172

>  <ref_pdb>  (338) 
A1145a

$$$$
C24186-P168
     RDKit          3D

 11 12  0  0  0  0  0  0  0  0999 V2000
    3.6763   12.6833   28.5034 C   0  0  0  0  0  0  0  0  0  0  0  0
    3.4308   13.7172   27.6299 C   0  0  0  0  0  0  0  0  0  0  0  0
    4.7041   13.8221   26.4966 S   0  0  0  0  0  0  0  0  0  0  0  0
    5.4800   12.4729   27.2352 C   0  0  0  0  0  0  0  0  0  0  0  0
    6.7806   11.8872   26.7193 C   0  0  0  0  0  0  0  0  0  0  0  0
    7.5158   12.7635   25.6908 C   0  0  0  0  0  0  0  0  0  0  0  0
    8.7576   12.1017   25.1120 C   0  0  0  0  0  0  0  0  0  0  0  0
    8.4396   10.7414   24.5289 C   0  0  0  0  0  0  0  0  0  0  0  0
    7.7108    9.8381   25.5027 C   0  0  0  0  0  0  0  0  0  0  0  0
    6.5272   10.4598   26.2203 C   0  0  0  0  0  0  0  0  0  0  0  0
    4.8419   11.9793   28.2811 N   0  0  0  0  0  0  0  0  0  0  0  0
  1  2  2  0
  2  3  1  0
  3  4  1  0
  4  5  1  0
  5  6  1  0
  6  7  1  0
  7  8  1  0
  8  9  1  0
  9 10  1  0
  4 11  2  0
 11  1  1  0
 10  5  1  0
M  END
>  <inchikey>  (339) 
ICXYMBBPUHNCID-UHFFFAOYSA-N

>  <energy_score>  (339) 
-37.366794

>  <subsites>  (339) 
1 - Active Site

>  <alias>  (339) 
C24186-P168

>  <tags>  (339) 
openbind_a71ev2a_c1_scaffolds,BulkDock Fragalysis export,openbind_a71ev2a_c1_knitwork_impure,fragmenstein_placed

>  <distance_score>  (339) 
0.939303

>  <placement_batch>  (339) 
openbind_a71ev2a_c1_knitwork_impure

>  <name>  (339) 
C24186-P168

>  <ref_mols>  (339) 
A3306a,A4320a

>  <smiles>  (339) 
c1csc(C2CCCCC2)n1

>  <HIPPO Compound ID>  (339) 
30433

>  <HIPPO Pose ID>  (339) 
402359

>  <ref_pdb>  (339) 
A1145a

$$$$
C2382-P185
     RDKit          3D

 15 15  0  0  0  0  0  0  0  0999 V2000
    6.4188   10.8822   26.0347 C   0  0  0  0  0  0  0  0  0  0  0  0
    7.0761   11.8159   25.0258 C   0  0  0  0  0  0  0  0  0  0  0  0
    8.5004   11.4205   24.7007 C   0  0  0  0  0  0  0  0  0  0  0  0
    6.8924   13.2667   25.4563 C   0  0  0  0  0  0  0  0  0  0  0  0
    7.9031   14.2554   24.9066 C   0  0  0  0  0  0  0  0  0  0  0  0
    8.7071   14.7463   25.7166 O   0  0  0  0  0  0  0  0  0  0  0  0
    7.8050   14.7551   23.4301 C   0  0  0  0  0  0  0  0  0  0  0  0
    6.9717   13.8524   22.5294 C   0  0  0  0  0  0  0  0  0  0  0  0
    7.0071   16.0681   23.5521 C   0  0  0  0  0  0  0  0  0  0  0  0
    9.1265   14.7632   22.7304 N   0  0  0  0  0  0  0  0  0  0  0  0
   10.3539   14.7751   23.5214 C   0  0  0  0  0  0  0  0  0  0  0  0
   11.6029   14.5096   22.6782 C   0  0  0  0  0  0  0  0  0  0  0  0
   11.6943   15.4428   21.4851 C   0  0  0  0  0  0  0  0  0  0  0  0
   10.4105   15.3608   20.6809 C   0  0  0  0  0  0  0  0  0  0  0  0
    9.2027   15.6570   21.5644 C   0  0  0  0  0  0  0  0  0  0  0  0
  1  2  1  0
  2  3  1  0
  2  4  1  0
  4  5  1  0
  5  6  2  0
  5  7  1  0
  7  8  1  0
  7  9  1  0
  7 10  1  0
 10 11  1  0
 11 12  1  0
 12 13  1  0
 13 14  1  0
 14 15  1  0
 15 10  1  0
M  END
>  <inchikey>  (340) 
CYHXIECXBFJELE-UHFFFAOYSA-N

>  <energy_score>  (340) 
-43.538261

>  <subsites>  (340) 
1 - Active Site

>  <alias>  (340) 
C2382-P185

>  <tags>  (340) 
openbind_a71ev2a_c1_scaffolds,BulkDock Fragalysis export,openbind_a71ev2a_c1_knitwork_impure,fragmenstein_placed

>  <distance_score>  (340) 
0.852581

>  <placement_batch>  (340) 
openbind_a71ev2a_c1_knitwork_impure

>  <name>  (340) 
C2382-P185

>  <ref_mols>  (340) 
A3480a,A1775a

>  <smiles>  (340) 
CC(C)CC(=O)C(C)(C)N1CCCCC1

>  <HIPPO Compound ID>  (340) 
43016

>  <HIPPO Pose ID>  (340) 
402644

>  <ref_pdb>  (340) 
A1145a

$$$$
C7182-P317
     RDKit          3D

 22 23  0  0  0  0  0  0  0  0999 V2000
    9.4925   10.0220   23.5801 C   0  0  0  0  0  0  0  0  0  0  0  0
    8.5355   10.6054   24.5481 C   0  0  0  0  0  0  0  0  0  0  0  0
    7.5888    9.9659   25.3126 C   0  0  0  0  0  0  0  0  0  0  0  0
    6.9775   10.9565   26.0918 C   0  0  0  0  0  0  0  0  0  0  0  0
    5.9078   10.7142   26.8968 N   0  0  0  0  0  0  0  0  0  0  0  0
    5.3005   11.5614   28.0502 C   0  0  0  0  0  0  0  0  0  0  0  0
    5.6719   12.5566   28.5339 O   0  0  0  0  0  0  0  0  0  0  0  0
    3.9772   10.8755   28.4073 C   0  0  0  0  0  0  0  0  0  0  0  0
    3.3438   11.2038   29.7660 C   0  0  1  0  0  0  0  0  0  0  0  0
    3.2316   12.7010   30.0517 C   0  0  0  0  0  0  0  0  0  0  0  0
    1.9446   10.5956   29.8143 C   0  0  0  0  0  0  0  0  0  0  0  0
    1.3860   10.7353   31.0348 F   0  0  0  0  0  0  0  0  0  0  0  0
    1.9682    9.2741   29.5303 F   0  0  0  0  0  0  0  0  0  0  0  0
    1.1228   11.1772   28.9111 F   0  0  0  0  0  0  0  0  0  0  0  0
    7.5541   12.1392   25.8977 N   0  0  0  0  0  0  0  0  0  0  0  0
    8.3886   11.9379   24.8507 N   0  0  0  0  0  0  0  0  0  0  0  0
    8.9923   13.0783   24.1672 C   0  0  0  0  0  0  0  0  0  0  0  0
   10.1661   13.6640   24.9581 C   0  0  0  0  0  0  0  0  0  0  0  0
   10.8301   14.8054   24.1919 C   0  0  0  0  0  0  0  0  0  0  0  0
    9.8241   15.8778   23.7860 C   0  0  0  0  0  0  0  0  0  0  0  0
    8.6352   15.2991   23.0229 C   0  0  0  0  0  0  0  0  0  0  0  0
    7.9680   14.1621   23.7945 C   0  0  0  0  0  0  0  0  0  0  0  0
  1  2  1  0
  2  3  2  0
  3  4  1  0
  4  5  1  0
  5  6  1  0
  6  7  2  0
  6  8  1  0
  8  9  1  0
  9 10  1  6
  9 11  1  0
 11 12  1  0
 11 13  1  0
 11 14  1  0
  4 15  2  0
 15 16  1  0
 16 17  1  0
 17 18  1  0
 18 19  1  0
 19 20  1  0
 20 21  1  0
 21 22  1  0
 16  2  1  0
 22 17  1  0
M  END
>  <inchikey>  (341) 
IBTBUYIARLWWHM-UHFFFAOYSA-N

>  <energy_score>  (341) 
-9.806626

>  <subsites>  (341) 
1 - Active Site

>  <alias>  (341) 
C7182-P317

>  <tags>  (341) 
openbind_a71ev2a_c1_scaffolds,BulkDock Fragalysis export,openbind_a71ev2a_c1_knitwork_impure,fragmenstein_placed

>  <distance_score>  (341) 
0.842784

>  <placement_batch>  (341) 
openbind_a71ev2a_c1_knitwork_impure

>  <name>  (341) 
C7182-P317

>  <ref_mols>  (341) 
A1445a,A4343b

>  <smiles>  (341) 
Cc1cc(NC(=O)C[C@@H](C)C(F)(F)F)nn1C1CCCCC1

>  <HIPPO Compound ID>  (341) 
7182

>  <HIPPO Pose ID>  (341) 
402697

>  <ref_pdb>  (341) 
A1145a

$$$$
C43276-P128
     RDKit          3D

 16 18  0  0  0  0  0  0  0  0999 V2000
    3.9026    9.9788   28.6259 S   0  0  0  0  0  0  0  0  0  0  0  0
    5.0181   10.9292   27.8593 C   0  0  0  0  0  0  0  0  0  0  0  0
    5.1574   12.2674   28.0839 N   0  0  0  0  0  0  0  0  0  0  0  0
    6.1794   12.9073   27.4554 N   0  0  0  0  0  0  0  0  0  0  0  0
    6.8380   12.0790   26.6827 C   0  0  0  0  0  0  0  0  0  0  0  0
    7.9614   12.4575   25.9865 N   0  0  0  0  0  0  0  0  0  0  0  0
    8.2573   13.8820   25.8137 C   0  0  0  0  0  0  0  0  0  0  0  0
    9.5613   14.0684   25.0626 C   0  0  0  0  0  0  0  0  0  0  0  0
    9.6006   12.7677   24.3633 C   0  0  0  0  0  0  0  0  0  0  0  0
   10.3824   12.4678   23.2810 C   0  0  0  0  0  0  0  0  0  0  0  0
   10.2943   11.1744   22.8261 C   0  0  0  0  0  0  0  0  0  0  0  0
    9.5475   10.2072   23.4897 C   0  0  0  0  0  0  0  0  0  0  0  0
    9.7100    8.4334   22.9461 Br  0  0  0  0  0  0  0  0  0  0  0  0
    8.7236   10.5350   24.5499 C   0  0  0  0  0  0  0  0  0  0  0  0
    8.7200   11.8436   24.9694 C   0  0  0  0  0  0  0  0  0  0  0  0
    6.1982   10.4477   26.6860 S   0  0  0  0  0  0  0  0  0  0  0  0
  1  2  2  0
  2  3  1  0
  3  4  1  0
  4  5  2  0
  5  6  1  0
  6  7  1  0
  7  8  1  0
  8  9  1  0
  9 10  2  0
 10 11  1  0
 11 12  2  0
 12 13  1  0
 12 14  1  0
 14 15  2  0
  5 16  1  0
 16  2  1  0
 15  6  1  0
 15  9  1  0
M  END
>  <inchikey>  (342) 
WEQDPGNEWZPZRD-UHFFFAOYSA-N

>  <energy_score>  (342) 
-34.51493

>  <subsites>  (342) 
1 - Active Site

>  <alias>  (342) 
C43276-P128

>  <tags>  (342) 
openbind_a71ev2a_c1_scaffolds,BulkDock Fragalysis export,openbind_a71ev2a_c1_knitwork_impure,fragmenstein_placed

>  <distance_score>  (342) 
0.834364

>  <placement_batch>  (342) 
openbind_a71ev2a_c1_knitwork_impure

>  <name>  (342) 
C43276-P128

>  <ref_mols>  (342) 
A2304a,A1778a

>  <smiles>  (342) 
S=c1[nH]nc(N2CCc3ccc(Br)cc32)s1

>  <HIPPO Compound ID>  (342) 
5396

>  <HIPPO Pose ID>  (342) 
403224

>  <ref_pdb>  (342) 
A1145a

$$$$
C43279-P124
     RDKit          3D

 16 18  0  0  0  0  0  0  0  0999 V2000
   10.2689    8.4552   23.0153 Br  0  0  0  0  0  0  0  0  0  0  0  0
   10.1151   10.1445   23.7720 C   0  0  0  0  0  0  0  0  0  0  0  0
   11.1679   11.0347   23.6085 C   0  0  0  0  0  0  0  0  0  0  0  0
   11.1080   12.2674   24.2259 C   0  0  0  0  0  0  0  0  0  0  0  0
    9.9386   12.6262   24.8608 C   0  0  0  0  0  0  0  0  0  0  0  0
    8.8983   11.7200   25.0645 C   0  0  0  0  0  0  0  0  0  0  0  0
    8.9912   10.4587   24.5281 C   0  0  0  0  0  0  0  0  0  0  0  0
    7.9231   12.2300   25.9195 N   0  0  0  0  0  0  0  0  0  0  0  0
    6.5453   11.7583   25.8727 C   0  0  0  0  0  0  0  0  0  0  0  0
    5.5978   12.2988   26.9171 C   0  0  0  0  0  0  0  0  0  0  0  0
    4.7307   13.4141   26.7919 C   0  0  0  0  0  0  0  0  0  0  0  0
    4.0799   13.4973   27.9980 C   0  0  0  0  0  0  0  0  0  0  0  0
    4.5634   12.4748   28.7580 N   0  0  0  0  0  0  0  0  0  0  0  0
    5.4818   11.7255   28.1263 N   0  0  0  0  0  0  0  0  0  0  0  0
    8.1386   13.6765   25.8784 C   0  0  0  0  0  0  0  0  0  0  0  0
    9.5932   13.9372   25.4691 C   0  0  0  0  0  0  0  0  0  0  0  0
  1  2  1  0
  2  3  2  0
  3  4  1  0
  4  5  2  0
  5  6  1  0
  6  7  2  0
  6  8  1  0
  8  9  1  0
  9 10  1  0
 10 11  1  0
 11 12  2  0
 12 13  1  0
 13 14  1  0
  8 15  1  0
 15 16  1  0
  7  2  1  0
 14 10  2  0
 16  5  1  0
M  END
>  <inchikey>  (343) 
QLHWJOTYGUXPGV-UHFFFAOYSA-N

>  <energy_score>  (343) 
-14.956447

>  <subsites>  (343) 
1 - Active Site

>  <alias>  (343) 
C43279-P124

>  <tags>  (343) 
openbind_a71ev2a_c1_scaffolds,BulkDock Fragalysis export,openbind_a71ev2a_c1_knitwork_impure,fragmenstein_placed

>  <distance_score>  (343) 
0.833238

>  <placement_batch>  (343) 
openbind_a71ev2a_c1_knitwork_impure

>  <name>  (343) 
C43279-P124

>  <ref_mols>  (343) 
A2304a,A1778a

>  <smiles>  (343) 
Brc1ccc2c(c1)N(Cc1cc[nH]n1)CC2

>  <HIPPO Compound ID>  (343) 
2416

>  <HIPPO Pose ID>  (343) 
403229

>  <ref_pdb>  (343) 
A1145a

$$$$
C43281-P124
     RDKit          3D

 16 18  0  0  0  0  0  0  0  0999 V2000
   11.6990   12.6953   22.7138 F   0  0  0  0  0  0  0  0  0  0  0  0
   10.8431   11.8478   23.2935 C   0  0  0  0  0  0  0  0  0  0  0  0
   10.8803   10.4996   22.9757 C   0  0  0  0  0  0  0  0  0  0  0  0
    9.9452    9.6357   23.5485 C   0  0  0  0  0  0  0  0  0  0  0  0
    8.9772   10.1234   24.4389 C   0  0  0  0  0  0  0  0  0  0  0  0
    8.9556   11.4651   24.7692 C   0  0  0  0  0  0  0  0  0  0  0  0
    9.9006   12.3121   24.1889 C   0  0  0  0  0  0  0  0  0  0  0  0
    9.7300   13.6845   24.7257 C   0  0  0  0  0  0  0  0  0  0  0  0
    8.3366   13.5552   25.3354 C   0  0  0  0  0  0  0  0  0  0  0  0
    8.1353   12.1380   25.6913 N   0  0  0  0  0  0  0  0  0  0  0  0
    6.7400   11.7298   25.9033 C   0  0  0  0  0  0  0  0  0  0  0  0
    5.9879   12.3826   27.0484 C   0  0  0  0  0  0  0  0  0  0  0  0
    6.5185   13.0576   28.1793 C   0  0  0  0  0  0  0  0  0  0  0  0
    5.4274   13.4844   28.8943 C   0  0  0  0  0  0  0  0  0  0  0  0
    4.3359   13.0632   28.1947 N   0  0  0  0  0  0  0  0  0  0  0  0
    4.6452   12.3649   27.0895 N   0  0  0  0  0  0  0  0  0  0  0  0
  1  2  1  0
  2  3  2  0
  3  4  1  0
  4  5  2  0
  5  6  1  0
  6  7  2  0
  7  8  1  0
  8  9  1  0
  9 10  1  0
 10 11  1  0
 11 12  1  0
 12 13  1  0
 13 14  2  0
 14 15  1  0
 15 16  1  0
  7  2  1  0
 16 12  2  0
 10  6  1  0
M  END
>  <inchikey>  (344) 
KVIFGEJVMMIWBY-UHFFFAOYSA-N

>  <energy_score>  (344) 
-24.60724

>  <subsites>  (344) 
1 - Active Site

>  <alias>  (344) 
C43281-P124

>  <tags>  (344) 
openbind_a71ev2a_c1_scaffolds,BulkDock Fragalysis export,openbind_a71ev2a_c1_knitwork_impure,fragmenstein_placed

>  <distance_score>  (344) 
0.647186

>  <placement_batch>  (344) 
openbind_a71ev2a_c1_knitwork_impure

>  <name>  (344) 
C43281-P124

>  <ref_mols>  (344) 
A2304a,A1778a

>  <smiles>  (344) 
Fc1cccc2c1CCN2Cc1cc[nH]n1

>  <HIPPO Compound ID>  (344) 
7443

>  <HIPPO Pose ID>  (344) 
403233

>  <ref_pdb>  (344) 
A1145a

$$$$
C12323-P321
     RDKit          3D

 12 12  0  0  0  0  0  0  0  0999 V2000
    7.5489   15.2567   26.6489 C   0  0  0  0  0  0  0  0  0  0  0  0
    8.2444   15.0175   25.3191 C   0  0  0  0  0  0  0  0  0  0  0  0
    7.2317   14.8595   24.1963 C   0  0  0  0  0  0  0  0  0  0  0  0
    7.8867   14.0614   22.7343 S   0  0  0  0  0  0  0  0  0  0  0  0
    8.7321   15.0046   22.0391 O   0  0  0  0  0  0  0  0  0  0  0  0
    6.8061   13.3893   22.0462 O   0  0  0  0  0  0  0  0  0  0  0  0
    8.9083   12.8396   23.2753 N   0  0  0  0  0  0  0  0  0  0  0  0
    8.5017   11.7016   23.9994 C   0  0  0  0  0  0  0  0  0  0  0  0
    9.0993   10.4014   23.8775 C   0  0  0  0  0  0  0  0  0  0  0  0
    8.5797    9.4192   24.6103 N   0  0  0  0  0  0  0  0  0  0  0  0
    7.3610   10.0416   25.5310 S   0  0  0  0  0  0  0  0  0  0  0  0
    7.4855   11.6261   24.9278 C   0  0  0  0  0  0  0  0  0  0  0  0
  1  2  1  0
  2  3  1  0
  3  4  1  0
  4  5  2  0
  4  6  2  0
  4  7  1  0
  7  8  1  0
  8  9  1  0
  9 10  2  0
 10 11  1  0
 11 12  1  0
 12  8  2  0
M  END
>  <inchikey>  (345) 
OEOUTLNRPVGOPE-UHFFFAOYSA-N

>  <energy_score>  (345) 
-41.892291

>  <subsites>  (345) 
1 - Active Site

>  <alias>  (345) 
C12323-P321

>  <tags>  (345) 
openbind_a71ev2a_c1_scaffolds,BulkDock Fragalysis export,openbind_a71ev2a_c1_knitwork_impure,fragmenstein_placed

>  <distance_score>  (345) 
0.988411

>  <placement_batch>  (345) 
openbind_a71ev2a_c1_knitwork_impure

>  <name>  (345) 
C12323-P321

>  <ref_mols>  (345) 
A4350a,A0719a

>  <smiles>  (345) 
CCCS(=O)(=O)Nc1cnsc1

>  <HIPPO Compound ID>  (345) 
12352

>  <HIPPO Pose ID>  (345) 
403547

>  <ref_pdb>  (345) 
A1145a

$$$$
C7587-P321
     RDKit          3D

 12 12  0  0  0  0  0  0  0  0999 V2000
    7.0944   15.2439   26.7937 C   0  0  0  0  0  0  0  0  0  0  0  0
    7.8395   15.1410   25.4759 C   0  0  0  0  0  0  0  0  0  0  0  0
    6.9135   14.6826   24.3601 C   0  0  0  0  0  0  0  0  0  0  0  0
    7.7917   14.0949   22.9184 S   0  0  0  0  0  0  0  0  0  0  0  0
    8.4215   15.2183   22.2655 O   0  0  0  0  0  0  0  0  0  0  0  0
    6.9494   13.1839   22.1798 O   0  0  0  0  0  0  0  0  0  0  0  0
    9.0440   13.1938   23.5278 N   0  0  0  0  0  0  0  0  0  0  0  0
    8.9895   12.0049   24.3790 C   0  0  2  0  0  0  0  0  0  0  0  0
    9.5557   10.7968   23.6665 C   0  0  0  0  0  0  0  0  0  0  0  0
    8.7744    9.5938   24.1485 C   0  0  0  0  0  0  0  0  0  0  0  0
    7.8841   10.0764   25.2109 N   0  0  0  0  0  0  0  0  0  0  0  0
    7.6635   11.5030   24.9153 C   0  0  0  0  0  0  0  0  0  0  0  0
  1  2  1  0
  2  3  1  0
  3  4  1  0
  4  5  2  0
  4  6  2  0
  4  7  1  0
  8  7  1  6
  8  9  1  0
  9 10  1  0
 10 11  1  0
 11 12  1  0
 12  8  1  0
M  END
>  <inchikey>  (346) 
ZWKQUCJFDUBTGP-UHFFFAOYSA-N

>  <energy_score>  (346) 
-26.801199

>  <subsites>  (346) 
1 - Active Site

>  <alias>  (346) 
C7587-P321

>  <tags>  (346) 
openbind_a71ev2a_c1_scaffolds,BulkDock Fragalysis export,openbind_a71ev2a_c1_knitwork_impure,fragmenstein_placed

>  <distance_score>  (346) 
0.989723

>  <placement_batch>  (346) 
openbind_a71ev2a_c1_knitwork_impure

>  <name>  (346) 
C7587-P321

>  <ref_mols>  (346) 
A4350a,A0719a

>  <smiles>  (346) 
CCCS(=O)(=O)N[C@@H]1CCNC1

>  <HIPPO Compound ID>  (346) 
7587

>  <HIPPO Pose ID>  (346) 
403571

>  <ref_pdb>  (346) 
A1145a

$$$$
C7653-P321
     RDKit          3D

 13 13  0  0  0  0  0  0  0  0999 V2000
    6.6945   15.3894   26.7763 C   0  0  0  0  0  0  0  0  0  0  0  0
    7.5687   15.3452   25.5382 C   0  0  0  0  0  0  0  0  0  0  0  0
    6.7791   14.8780   24.3209 C   0  0  0  0  0  0  0  0  0  0  0  0
    7.8242   14.2413   23.0146 S   0  0  0  0  0  0  0  0  0  0  0  0
    8.4493   15.3574   22.3442 O   0  0  0  0  0  0  0  0  0  0  0  0
    7.1184   13.2225   22.2693 O   0  0  0  0  0  0  0  0  0  0  0  0
    9.0660   13.4998   23.8599 N   0  0  0  0  0  0  0  0  0  0  0  0
    9.0234   12.1545   24.4762 C   0  0  1  0  0  0  0  0  0  0  0  0
    7.7080   11.7813   25.1743 C   0  0  0  0  0  0  0  0  0  0  0  0
    7.5374   10.3086   25.3976 C   0  0  0  0  0  0  0  0  0  0  0  0
    8.3034    9.3932   24.7923 C   0  0  0  0  0  0  0  0  0  0  0  0
    9.4211    9.6967   23.8531 C   0  0  0  0  0  0  0  0  0  0  0  0
    9.4170   11.1472   23.4191 C   0  0  0  0  0  0  0  0  0  0  0  0
  1  2  1  0
  2  3  1  0
  3  4  1  0
  4  5  2  0
  4  6  2  0
  4  7  1  0
  8  7  1  6
  8  9  1  0
  9 10  1  0
 10 11  2  0
 11 12  1  0
 12 13  1  0
 13  8  1  0
M  END
>  <inchikey>  (347) 
PFPJWHGWJHUTES-UHFFFAOYSA-N

>  <energy_score>  (347) 
-33.791524

>  <subsites>  (347) 
1 - Active Site

>  <alias>  (347) 
C7653-P321

>  <tags>  (347) 
openbind_a71ev2a_c1_scaffolds,BulkDock Fragalysis export,openbind_a71ev2a_c1_knitwork_impure,fragmenstein_placed

>  <distance_score>  (347) 
0.978147

>  <placement_batch>  (347) 
openbind_a71ev2a_c1_knitwork_impure

>  <name>  (347) 
C7653-P321

>  <ref_mols>  (347) 
A4350a,A0719a

>  <smiles>  (347) 
CCCS(=O)(=O)N[C@H]1CC=CCC1

>  <HIPPO Compound ID>  (347) 
2409

>  <HIPPO Pose ID>  (347) 
403607

>  <ref_pdb>  (347) 
A1145a

$$$$
C8155-P390
     RDKit          3D

 16 16  0  0  0  0  0  0  0  0999 V2000
   10.5187   15.1962   18.4155 C   0  0  0  0  0  0  0  0  0  0  0  0
   10.7156   15.5371   19.8379 C   0  0  0  0  0  0  0  0  0  0  0  0
   11.5956   14.8570   20.5740 C   0  0  0  0  0  0  0  0  0  0  0  0
   11.9924   15.1547   21.9150 C   0  0  0  0  0  0  0  0  0  0  0  0
   11.2021   15.3755   22.9660 C   0  0  0  0  0  0  0  0  0  0  0  0
    9.7294   15.5402   22.9865 C   0  0  0  0  0  0  0  0  0  0  0  0
    9.0869   14.3470   22.5009 N   0  0  0  0  0  0  0  0  0  0  0  0
    7.6365   13.9783   23.1895 S   0  0  0  0  0  0  0  0  0  0  0  0
    6.9622   15.1778   23.6048 O   0  0  0  0  0  0  0  0  0  0  0  0
    7.0293   13.0088   22.3138 O   0  0  0  0  0  0  0  0  0  0  0  0
    8.1353   13.2144   24.5999 N   0  0  0  0  0  0  0  0  0  0  0  0
    9.4981   12.6938   24.6593 C   0  0  0  0  0  0  0  0  0  0  0  0
    9.5958   11.4479   23.8275 C   0  0  0  0  0  0  0  0  0  0  0  0
    8.6794   10.3782   24.3666 C   0  0  0  0  0  0  0  0  0  0  0  0
    7.6528   10.8840   25.3817 C   0  0  0  0  0  0  0  0  0  0  0  0
    7.1219   12.3010   25.1785 C   0  0  0  0  0  0  0  0  0  0  0  0
  1  2  1  0
  2  3  2  3
  3  4  1  0
  4  5  2  3
  5  6  1  0
  6  7  1  0
  7  8  1  0
  8  9  2  0
  8 10  2  0
  8 11  1  0
 11 12  1  0
 12 13  1  0
 13 14  1  0
 14 15  1  0
 15 16  1  0
 16 11  1  0
M  END
>  <inchikey>  (348) 
YCCKCVPWORBAJK-UHFFFAOYSA-N

>  <energy_score>  (348) 
-29.992482

>  <subsites>  (348) 
1 - Active Site

>  <alias>  (348) 
C8155-P390

>  <tags>  (348) 
openbind_a71ev2a_c1_scaffolds,BulkDock Fragalysis export,openbind_a71ev2a_c1_knitwork_impure,fragmenstein_placed

>  <distance_score>  (348) 
0.898093

>  <placement_batch>  (348) 
openbind_a71ev2a_c1_knitwork_impure

>  <name>  (348) 
C8155-P390

>  <ref_mols>  (348) 
A0719a,A4524a

>  <smiles>  (348) 
CC=CC=CCNS(=O)(=O)N1CCCCC1

>  <HIPPO Compound ID>  (348) 
8484

>  <HIPPO Pose ID>  (348) 
404007

>  <ref_pdb>  (348) 
A3181b

$$$$
C8169-P390
     RDKit          3D

 14 14  0  0  0  0  0  0  0  0999 V2000
    7.9029   14.9447   24.4478 O   0  0  0  0  0  0  0  0  0  0  0  0
    7.9569   14.1147   23.2686 S   0  0  0  0  0  0  0  0  0  0  0  0
    6.8675   13.9792   22.3372 O   0  0  0  0  0  0  0  0  0  0  0  0
    9.3132   14.4985   22.4187 N   0  0  0  0  0  0  0  0  0  0  0  0
   10.4470   15.0972   23.1247 C   0  0  0  0  0  0  0  0  0  0  0  0
   11.7488   14.7533   22.4140 C   0  0  0  0  0  0  0  0  0  0  0  0
   11.9494   15.5979   21.1740 C   0  0  0  0  0  0  0  0  0  0  0  0
   10.7620   15.2432   19.9036 Cl  0  0  0  0  0  0  0  0  0  0  0  0
    8.3069   12.5673   23.7680 N   0  0  0  0  0  0  0  0  0  0  0  0
    7.3803   12.0741   24.8024 C   0  0  0  0  0  0  0  0  0  0  0  0
    7.7747   10.6905   25.2786 C   0  0  0  0  0  0  0  0  0  0  0  0
    8.6542    9.9005   24.3242 C   0  0  0  0  0  0  0  0  0  0  0  0
    9.7658   10.6738   23.6930 C   0  0  0  0  0  0  0  0  0  0  0  0
    9.6893   12.1522   23.9731 C   0  0  0  0  0  0  0  0  0  0  0  0
  1  2  2  0
  2  3  2  0
  2  4  1  0
  4  5  1  0
  5  6  1  0
  6  7  1  0
  7  8  1  0
  2  9  1  0
  9 10  1  0
 10 11  1  0
 11 12  1  0
 12 13  1  0
 13 14  1  0
 14  9  1  0
M  END
>  <inchikey>  (349) 
BVXIXHZBAAESKN-UHFFFAOYSA-N

>  <energy_score>  (349) 
-26.899286

>  <subsites>  (349) 
1 - Active Site

>  <alias>  (349) 
C8169-P390

>  <tags>  (349) 
openbind_a71ev2a_c1_scaffolds,BulkDock Fragalysis export,openbind_a71ev2a_c1_knitwork_impure,fragmenstein_placed

>  <distance_score>  (349) 
0.755353

>  <placement_batch>  (349) 
openbind_a71ev2a_c1_knitwork_impure

>  <name>  (349) 
C8169-P390

>  <ref_mols>  (349) 
A0719a,A4524a

>  <smiles>  (349) 
O=S(=O)(NCCCCl)N1CCCCC1

>  <HIPPO Compound ID>  (349) 
498

>  <HIPPO Pose ID>  (349) 
404014

>  <ref_pdb>  (349) 
A3181b

$$$$
C8174-P390
     RDKit          3D

 19 19  0  0  0  0  0  0  0  0999 V2000
   11.3169   14.9477   25.9040 C   0  0  0  0  0  0  0  0  0  0  0  0
   10.9996   15.0721   24.4303 C   0  0  0  0  0  0  0  0  0  0  0  0
   12.0079   14.4533   23.4814 C   0  0  0  0  0  0  0  0  0  0  0  0
   11.6409   14.4565   21.9948 C   0  0  0  0  0  0  0  0  0  0  0  0
   10.6537   15.4881   21.4318 C   0  0  1  0  0  0  0  0  0  0  0  0
   10.6000   15.2807   19.9236 C   0  0  0  0  0  0  0  0  0  0  0  0
    9.9443   16.3959   19.1376 C   0  0  0  0  0  0  0  0  0  0  0  0
    9.3512   17.6161   19.8598 C   0  0  0  0  0  0  0  0  0  0  0  0
    9.2280   15.4605   21.9902 C   0  0  0  0  0  0  0  0  0  0  0  0
    8.7657   14.0981   22.1185 N   0  0  0  0  0  0  0  0  0  0  0  0
    7.5330   13.8377   23.1811 S   0  0  0  0  0  0  0  0  0  0  0  0
    7.5778   14.7615   24.2847 O   0  0  0  0  0  0  0  0  0  0  0  0
    6.3672   13.5864   22.3772 O   0  0  0  0  0  0  0  0  0  0  0  0
    8.0351   12.3638   23.7573 N   0  0  0  0  0  0  0  0  0  0  0  0
    9.4708   12.1296   23.9496 C   0  0  0  0  0  0  0  0  0  0  0  0
    9.7078   10.6727   23.6775 C   0  0  0  0  0  0  0  0  0  0  0  0
    8.6626    9.8135   24.3153 C   0  0  0  0  0  0  0  0  0  0  0  0
    7.7462   10.5166   25.3170 C   0  0  0  0  0  0  0  0  0  0  0  0
    7.2746   11.9047   24.9263 C   0  0  0  0  0  0  0  0  0  0  0  0
  1  2  1  0
  2  3  1  0
  3  4  1  0
  5  4  1  1
  5  6  1  0
  6  7  1  0
  7  8  1  0
  5  9  1  0
  9 10  1  0
 10 11  1  0
 11 12  2  0
 11 13  2  0
 11 14  1  0
 14 15  1  0
 15 16  1  0
 16 17  1  0
 17 18  1  0
 18 19  1  0
 19 14  1  0
M  END
>  <inchikey>  (350) 
VLIIKHOBTSPATL-UHFFFAOYSA-N

>  <energy_score>  (350) 
-5.071165

>  <subsites>  (350) 
1 - Active Site

>  <alias>  (350) 
C8174-P390

>  <tags>  (350) 
openbind_a71ev2a_c1_scaffolds,BulkDock Fragalysis export,openbind_a71ev2a_c1_knitwork_impure,fragmenstein_placed

>  <distance_score>  (350) 
0.936297

>  <placement_batch>  (350) 
openbind_a71ev2a_c1_knitwork_impure

>  <name>  (350) 
C8174-P390

>  <ref_mols>  (350) 
A0719a,A4524a

>  <smiles>  (350) 
CCCC[C@@H](CCC)CNS(=O)(=O)N1CCCCC1

>  <HIPPO Compound ID>  (350) 
4670

>  <HIPPO Pose ID>  (350) 
404017

>  <ref_pdb>  (350) 
A3181b

$$$$
C13035-P151
     RDKit          3D

 18 19  0  0  0  0  0  0  0  0999 V2000
    3.1987   12.5107   29.9898 C   0  0  0  0  0  0  0  0  0  0  0  0
    3.3007   10.9880   29.8730 C   0  0  2  0  0  0  0  0  0  0  0  0
    4.0860   10.4636   28.6552 C   0  0  0  0  0  0  0  0  0  0  0  0
    5.3102   11.2582   28.1983 C   0  0  0  0  0  0  0  0  0  0  0  0
    5.6040   12.3001   28.6342 O   0  0  0  0  0  0  0  0  0  0  0  0
    5.9367   10.4406   27.0323 N   0  0  0  0  0  0  0  0  0  0  0  0
    6.9305   10.7650   26.1601 C   0  0  0  0  0  0  0  0  0  0  0  0
    7.6168    9.8589   25.3023 C   0  0  0  0  0  0  0  0  0  0  0  0
    8.4852   10.6487   24.6035 C   0  0  0  0  0  0  0  0  0  0  0  0
    8.2315   11.9097   25.0081 N   0  0  0  0  0  0  0  0  0  0  0  0
    7.3685   12.0200   26.0023 N   0  0  0  0  0  0  0  0  0  0  0  0
    9.0216   12.9365   24.3668 C   0  0  0  0  0  0  0  0  0  0  0  0
   10.0900   12.0892   23.6490 C   0  0  0  0  0  0  0  0  0  0  0  0
    9.5621   10.6237   23.6056 C   0  0  0  0  0  0  0  0  0  0  0  0
    1.8831   10.4280   29.8272 C   0  0  0  0  0  0  0  0  0  0  0  0
    1.2175   10.6784   30.9734 F   0  0  0  0  0  0  0  0  0  0  0  0
    1.8859    9.0899   29.6424 F   0  0  0  0  0  0  0  0  0  0  0  0
    1.1762   10.9662   28.8064 F   0  0  0  0  0  0  0  0  0  0  0  0
  2  1  1  6
  2  3  1  0
  3  4  1  0
  4  5  2  0
  4  6  1  0
  6  7  1  0
  7  8  1  0
  8  9  2  0
  9 10  1  0
 10 11  1  0
 10 12  1  0
 12 13  1  0
 13 14  1  0
  2 15  1  0
 15 16  1  0
 15 17  1  0
 15 18  1  0
 11  7  2  0
 14  9  1  0
M  END
>  <inchikey>  (351) 
WPHZCKRFPCKMPN-UHFFFAOYSA-N

>  <energy_score>  (351) 
-10.203222

>  <subsites>  (351) 
1 - Active Site

>  <alias>  (351) 
C13035-P151

>  <tags>  (351) 
openbind_a71ev2a_c1_scaffolds,BulkDock Fragalysis export,openbind_a71ev2a_c1_knitwork_impure,fragmenstein_placed

>  <distance_score>  (351) 
0.801333

>  <placement_batch>  (351) 
openbind_a71ev2a_c1_knitwork_impure

>  <name>  (351) 
C13035-P151

>  <ref_mols>  (351) 
A1445a,A3194a

>  <smiles>  (351) 
C[C@H](CC(=O)Nc1cc2n(n1)CCC2)C(F)(F)F

>  <HIPPO Compound ID>  (351) 
1682

>  <HIPPO Pose ID>  (351) 
404020

>  <ref_pdb>  (351) 
A3181b

$$$$
C7181-P151
     RDKit          3D

 21 22  0  0  0  0  0  0  0  0999 V2000
    3.2449   12.5440   29.9785 C   0  0  0  0  0  0  0  0  0  0  0  0
    3.3824   11.0292   29.8019 C   0  0  2  0  0  0  0  0  0  0  0  0
    4.1552   10.5875   28.5424 C   0  0  0  0  0  0  0  0  0  0  0  0
    5.3983   11.3926   28.1529 C   0  0  0  0  0  0  0  0  0  0  0  0
    5.7228   12.3755   28.6936 O   0  0  0  0  0  0  0  0  0  0  0  0
    5.9939   10.6874   26.8986 N   0  0  0  0  0  0  0  0  0  0  0  0
    6.9889   11.0783   26.0533 C   0  0  0  0  0  0  0  0  0  0  0  0
    7.6761   10.2702   25.1258 C   0  0  0  0  0  0  0  0  0  0  0  0
    8.5025   11.1311   24.4355 C   0  0  0  0  0  0  0  0  0  0  0  0
    8.2438   12.3742   24.9364 N   0  0  0  0  0  0  0  0  0  0  0  0
    8.7895   13.6642   24.5160 C   0  0  0  0  0  0  0  0  0  0  0  0
    8.6349   13.9446   23.0085 C   0  0  0  0  0  0  0  0  0  0  0  0
    9.9640   13.8794   22.2637 C   0  0  0  0  0  0  0  0  0  0  0  0
   10.9910   14.8626   22.8221 C   0  0  0  0  0  0  0  0  0  0  0  0
   10.9051   15.0360   24.3373 C   0  0  0  0  0  0  0  0  0  0  0  0
   10.2302   13.8511   25.0164 C   0  0  0  0  0  0  0  0  0  0  0  0
    7.4013   12.3406   25.9832 N   0  0  0  0  0  0  0  0  0  0  0  0
    1.9757   10.4381   29.7647 C   0  0  0  0  0  0  0  0  0  0  0  0
    1.3264   10.6381   30.9311 F   0  0  0  0  0  0  0  0  0  0  0  0
    2.0007    9.1068   29.5390 F   0  0  0  0  0  0  0  0  0  0  0  0
    1.2351   10.9923   28.7768 F   0  0  0  0  0  0  0  0  0  0  0  0
  2  1  1  6
  2  3  1  0
  3  4  1  0
  4  5  2  0
  4  6  1  0
  6  7  1  0
  7  8  1  0
  8  9  2  0
  9 10  1  0
 10 11  1  0
 11 12  1  0
 12 13  1  0
 13 14  1  0
 14 15  1  0
 15 16  1  0
 10 17  1  0
  2 18  1  0
 18 19  1  0
 18 20  1  0
 18 21  1  0
 17  7  2  0
 16 11  1  0
M  END
>  <inchikey>  (352) 
BFAIKMGDZZASRD-UHFFFAOYSA-N

>  <energy_score>  (352) 
-2.274469

>  <subsites>  (352) 
1 - Active Site

>  <alias>  (352) 
C7181-P151

>  <tags>  (352) 
openbind_a71ev2a_c1_scaffolds,BulkDock Fragalysis export,openbind_a71ev2a_c1_knitwork_impure,fragmenstein_placed

>  <distance_score>  (352) 
0.875707

>  <placement_batch>  (352) 
openbind_a71ev2a_c1_knitwork_impure

>  <name>  (352) 
C7181-P151

>  <ref_mols>  (352) 
A1445a,A3194a

>  <smiles>  (352) 
C[C@H](CC(=O)Nc1ccn(C2CCCCC2)n1)C(F)(F)F

>  <HIPPO Compound ID>  (352) 
2617

>  <HIPPO Pose ID>  (352) 
404063

>  <ref_pdb>  (352) 
A3181b

$$$$
C7182-P151
     RDKit          3D

 22 23  0  0  0  0  0  0  0  0999 V2000
    9.4339    9.9170   23.4953 C   0  0  0  0  0  0  0  0  0  0  0  0
    8.4873   10.4921   24.4828 C   0  0  0  0  0  0  0  0  0  0  0  0
    7.5950    9.8397   25.3025 C   0  0  0  0  0  0  0  0  0  0  0  0
    6.9591   10.8328   26.0616 C   0  0  0  0  0  0  0  0  0  0  0  0
    5.9313   10.5830   26.9198 N   0  0  0  0  0  0  0  0  0  0  0  0
    5.3112   11.4697   28.0380 C   0  0  0  0  0  0  0  0  0  0  0  0
    5.6375   12.5150   28.4423 O   0  0  0  0  0  0  0  0  0  0  0  0
    4.0438   10.7321   28.4858 C   0  0  0  0  0  0  0  0  0  0  0  0
    3.3699   11.1589   29.7983 C   0  0  1  0  0  0  0  0  0  0  0  0
    3.2667   12.6703   29.9985 C   0  0  0  0  0  0  0  0  0  0  0  0
    1.9610   10.5713   29.8392 C   0  0  0  0  0  0  0  0  0  0  0  0
    1.3782   10.7672   31.0406 F   0  0  0  0  0  0  0  0  0  0  0  0
    1.9725    9.2392   29.6086 F   0  0  0  0  0  0  0  0  0  0  0  0
    1.1670   11.1267   28.8956 F   0  0  0  0  0  0  0  0  0  0  0  0
    7.4652   12.0330   25.7946 N   0  0  0  0  0  0  0  0  0  0  0  0
    8.2951   11.8290   24.7461 N   0  0  0  0  0  0  0  0  0  0  0  0
    8.8599   12.9627   24.0177 C   0  0  0  0  0  0  0  0  0  0  0  0
   10.2179   13.3823   24.5898 C   0  0  0  0  0  0  0  0  0  0  0  0
   10.8479   14.4952   23.7569 C   0  0  0  0  0  0  0  0  0  0  0  0
    9.9081   15.6868   23.6095 C   0  0  0  0  0  0  0  0  0  0  0  0
    8.5412   15.2797   23.0647 C   0  0  0  0  0  0  0  0  0  0  0  0
    7.9095   14.1657   23.8990 C   0  0  0  0  0  0  0  0  0  0  0  0
  1  2  1  0
  2  3  2  0
  3  4  1  0
  4  5  1  0
  5  6  1  0
  6  7  2  0
  6  8  1  0
  8  9  1  0
  9 10  1  6
  9 11  1  0
 11 12  1  0
 11 13  1  0
 11 14  1  0
  4 15  2  0
 15 16  1  0
 16 17  1  0
 17 18  1  0
 18 19  1  0
 19 20  1  0
 20 21  1  0
 21 22  1  0
 16  2  1  0
 22 17  1  0
M  END
>  <inchikey>  (353) 
ZHAMFANYGUBSHC-UHFFFAOYSA-N

>  <energy_score>  (353) 
-9.319512

>  <subsites>  (353) 
1 - Active Site

>  <alias>  (353) 
C7182-P151

>  <tags>  (353) 
openbind_a71ev2a_c1_scaffolds,BulkDock Fragalysis export,openbind_a71ev2a_c1_knitwork_impure,fragmenstein_placed

>  <distance_score>  (353) 
0.912334

>  <placement_batch>  (353) 
openbind_a71ev2a_c1_knitwork_impure

>  <name>  (353) 
C7182-P151

>  <ref_mols>  (353) 
A1445a,A3194a

>  <smiles>  (353) 
Cc1cc(NC(=O)C[C@@H](C)C(F)(F)F)nn1C1CCCCC1

>  <HIPPO Compound ID>  (353) 
26592

>  <HIPPO Pose ID>  (353) 
404064

>  <ref_pdb>  (353) 
A3181b

$$$$
C31976-P405
     RDKit          3D

 16 17  0  0  0  0  0  0  0  0999 V2000
    7.5442   14.4056   25.0768 C   0  0  0  0  0  0  0  0  0  0  0  0
    8.6812   13.4666   24.6443 C   0  0  0  0  0  0  0  0  0  0  0  0
    9.7970   13.4527   25.6980 C   0  0  0  0  0  0  0  0  0  0  0  0
    9.2062   13.8615   23.2410 C   0  0  0  0  0  0  0  0  0  0  0  0
    9.5789   15.2850   23.0819 N   0  0  0  0  0  0  0  0  0  0  0  0
   10.7584   15.8155   23.8076 C   0  0  0  0  0  0  0  0  0  0  0  0
   12.0165   15.4451   23.0280 C   0  0  0  0  0  0  0  0  0  0  0  0
   11.4667   15.5634   21.6634 C   0  0  0  0  0  0  0  0  0  0  0  0
   12.1262   15.6902   20.4582 C   0  0  0  0  0  0  0  0  0  0  0  0
   11.3868   15.6758   19.2836 C   0  0  0  0  0  0  0  0  0  0  0  0
   10.0036   15.5859   19.3500 C   0  0  0  0  0  0  0  0  0  0  0  0
    9.3432   15.4501   20.5801 C   0  0  0  0  0  0  0  0  0  0  0  0
   10.0826   15.4426   21.7348 C   0  0  0  0  0  0  0  0  0  0  0  0
    8.2568   11.9905   24.5196 C   0  0  0  0  0  0  0  0  0  0  0  0
    8.9233   11.2012   23.8502 O   0  0  0  0  0  0  0  0  0  0  0  0
    6.9089   11.4977   25.5063 Cl  0  0  0  0  0  0  0  0  0  0  0  0
  1  2  1  0
  2  3  1  0
  2  4  1  0
  4  5  1  0
  5  6  1  0
  6  7  1  0
  7  8  1  0
  8  9  2  0
  9 10  1  0
 10 11  2  0
 11 12  1  0
 12 13  2  0
  2 14  1  0
 14 15  2  0
 14 16  1  0
 13  5  1  0
 13  8  1  0
M  END
>  <inchikey>  (354) 
IXMDEIPJYFZEHY-UHFFFAOYSA-N

>  <energy_score>  (354) 
-18.744095

>  <subsites>  (354) 
1 - Active Site

>  <alias>  (354) 
C31976-P405

>  <tags>  (354) 
openbind_a71ev2a_c1_scaffolds,BulkDock Fragalysis export,openbind_a71ev2a_c1_knitwork_impure,fragmenstein_placed

>  <distance_score>  (354) 
0.976163

>  <placement_batch>  (354) 
openbind_a71ev2a_c1_knitwork_impure

>  <name>  (354) 
C31976-P405

>  <ref_mols>  (354) 
A1778a,A4570a

>  <smiles>  (354) 
CC(C)(CN1CCc2ccccc21)C(=O)Cl

>  <HIPPO Compound ID>  (354) 
8054

>  <HIPPO Pose ID>  (354) 
405128

>  <ref_pdb>  (354) 
A3181b

$$$$
C4749-P199
     RDKit          3D

 11 12  0  0  0  0  0  0  0  0999 V2000
    7.2720   10.6773   25.5072 C   0  0  0  0  0  0  0  0  0  0  0  0
    7.8426    9.5851   25.0064 N   0  0  0  0  0  0  0  0  0  0  0  0
    8.7931   10.0605   24.1854 N   0  0  0  0  0  0  0  0  0  0  0  0
    8.8371   11.4284   24.1661 C   0  0  0  0  0  0  0  0  0  0  0  0
    7.8505   11.8765   25.0282 C   0  0  0  0  0  0  0  0  0  0  0  0
    7.5143   13.2965   25.3952 C   0  0  1  0  0  0  0  0  0  0  0  0
    7.1368   14.1733   24.1765 C   0  0  0  0  0  0  0  0  0  0  0  0
    6.8640   15.5687   24.5298 N   0  0  0  0  0  0  0  0  0  0  0  0
    5.7016   15.7464   25.4066 C   0  0  0  0  0  0  0  0  0  0  0  0
    5.0576   14.4811   25.9859 C   0  0  0  0  0  0  0  0  0  0  0  0
    6.2637   13.3574   26.7586 S   0  0  0  0  0  0  0  0  0  0  0  0
  1  2  2  0
  2  3  1  0
  3  4  1  0
  4  5  2  0
  6  5  1  6
  6  7  1  0
  7  8  1  0
  8  9  1  0
  9 10  1  0
 10 11  1  0
  5  1  1  0
 11  6  1  0
M  END
>  <inchikey>  (355) 
ULBBXWVIXXPSOD-UHFFFAOYSA-N

>  <energy_score>  (355) 
-18.387495

>  <subsites>  (355) 
1 - Active Site

>  <alias>  (355) 
C4749-P199

>  <tags>  (355) 
openbind_a71ev2a_c1_scaffolds,BulkDock Fragalysis export,openbind_a71ev2a_c1_knitwork_impure,fragmenstein_placed

>  <distance_score>  (355) 
0.832441

>  <placement_batch>  (355) 
openbind_a71ev2a_c1_knitwork_impure

>  <name>  (355) 
C4749-P199

>  <ref_mols>  (355) 
A0556a,A3621a

>  <smiles>  (355) 
c1n[nH]cc1[C@H]1CNCCS1

>  <HIPPO Compound ID>  (355) 
5397

>  <HIPPO Pose ID>  (355) 
406181

>  <ref_pdb>  (355) 
A3181b

$$$$
C4755-P199
     RDKit          3D

 10 11  0  0  0  0  0  0  0  0999 V2000
    7.2116   10.6082   25.5064 C   0  0  0  0  0  0  0  0  0  0  0  0
    7.9208    9.5950   25.0182 N   0  0  0  0  0  0  0  0  0  0  0  0
    8.8214   10.1839   24.2151 N   0  0  0  0  0  0  0  0  0  0  0  0
    8.7073   11.5468   24.2033 C   0  0  0  0  0  0  0  0  0  0  0  0
    7.6471   11.8701   25.0351 C   0  0  0  0  0  0  0  0  0  0  0  0
    7.0251   13.1978   25.3173 C   0  0  2  0  0  0  0  0  0  0  0  0
    8.0555   14.2410   25.4065 N   0  0  0  0  0  0  0  0  0  0  0  0
    7.3957   15.3832   26.0594 C   0  0  0  0  0  0  0  0  0  0  0  0
    6.7129   14.8893   27.3270 C   0  0  0  0  0  0  0  0  0  0  0  0
    6.1365   13.2312   26.9063 S   0  0  0  0  0  0  0  0  0  0  0  0
  1  2  2  0
  2  3  1  0
  3  4  1  0
  4  5  2  0
  6  5  1  1
  6  7  1  0
  7  8  1  0
  8  9  1  0
  9 10  1  0
  5  1  1  0
 10  6  1  0
M  END
>  <inchikey>  (356) 
UGSIBURWRIDDTK-UHFFFAOYSA-N

>  <energy_score>  (356) 
-15.329963

>  <subsites>  (356) 
1 - Active Site

>  <alias>  (356) 
C4755-P199

>  <tags>  (356) 
openbind_a71ev2a_c1_scaffolds,BulkDock Fragalysis export,openbind_a71ev2a_c1_knitwork_impure,fragmenstein_placed

>  <distance_score>  (356) 
0.755422

>  <placement_batch>  (356) 
openbind_a71ev2a_c1_knitwork_impure

>  <name>  (356) 
C4755-P199

>  <ref_mols>  (356) 
A0556a,A3621a

>  <smiles>  (356) 
c1n[nH]cc1[C@@H]1NCCS1

>  <HIPPO Compound ID>  (356) 
21294

>  <HIPPO Pose ID>  (356) 
406187

>  <ref_pdb>  (356) 
A3181b

$$$$
C3806-P199
     RDKit          3D

 11 12  0  0  0  0  0  0  0  0999 V2000
    7.2287   10.7194   25.5434 C   0  0  0  0  0  0  0  0  0  0  0  0
    7.8669    9.6272   25.1363 N   0  0  0  0  0  0  0  0  0  0  0  0
    8.7705   10.0840   24.2531 N   0  0  0  0  0  0  0  0  0  0  0  0
    8.7121   11.4421   24.0965 C   0  0  0  0  0  0  0  0  0  0  0  0
    7.6864   11.8945   24.9071 C   0  0  0  0  0  0  0  0  0  0  0  0
    7.1481   13.2962   25.0312 C   0  0  1  0  0  0  0  0  0  0  0  0
    5.9740   13.4257   26.0278 C   0  0  0  0  0  0  0  0  0  0  0  0
    6.4713   13.8503   27.4047 C   0  0  0  0  0  0  0  0  0  0  0  0
    7.1971   15.1993   27.3444 C   0  0  0  0  0  0  0  0  0  0  0  0
    7.8029   15.5133   26.0460 N   0  0  0  0  0  0  0  0  0  0  0  0
    8.2744   14.3029   25.3659 C   0  0  0  0  0  0  0  0  0  0  0  0
  1  2  2  0
  2  3  1  0
  3  4  1  0
  4  5  2  0
  6  5  1  1
  6  7  1  0
  7  8  1  0
  8  9  1  0
  9 10  1  0
 10 11  1  0
  5  1  1  0
 11  6  1  0
M  END
>  <inchikey>  (357) 
SATYTGVRESMOJT-UHFFFAOYSA-N

>  <energy_score>  (357) 
-13.411915

>  <subsites>  (357) 
1 - Active Site

>  <alias>  (357) 
C3806-P199

>  <tags>  (357) 
openbind_a71ev2a_c1_scaffolds,BulkDock Fragalysis export,openbind_a71ev2a_c1_knitwork_impure,fragmenstein_placed

>  <distance_score>  (357) 
0.834912

>  <placement_batch>  (357) 
openbind_a71ev2a_c1_knitwork_impure

>  <name>  (357) 
C3806-P199

>  <ref_mols>  (357) 
A0556a,A3621a

>  <smiles>  (357) 
c1n[nH]cc1[C@H]1CCCNC1

>  <HIPPO Compound ID>  (357) 
8866

>  <HIPPO Pose ID>  (357) 
406192

>  <ref_pdb>  (357) 
A3181b

$$$$
C10627-P405
     RDKit          3D

 13 13  0  0  0  0  0  0  0  0999 V2000
    7.3323   14.1103   25.5543 C   0  0  0  0  0  0  0  0  0  0  0  0
    8.4573   13.9656   24.5389 C   0  0  0  0  0  0  0  0  0  0  0  0
    8.2220   14.8414   23.2998 C   0  0  1  0  0  0  0  0  0  0  0  0
    9.4578   14.8731   22.4076 C   0  0  0  0  0  0  0  0  0  0  0  0
    7.0402   14.3349   22.4796 C   0  0  0  0  0  0  0  0  0  0  0  0
    6.9134   13.1313   22.2409 O   0  0  0  0  0  0  0  0  0  0  0  0
    6.0803   15.3541   21.9112 C   0  0  0  0  0  0  0  0  0  0  0  0
    4.3947   15.0184   22.4574 S   0  0  0  0  0  0  0  0  0  0  0  0
    3.6914   14.5639   20.9369 C   0  0  0  0  0  0  0  0  0  0  0  0
    2.7581   15.2859   20.3492 N   0  0  0  0  0  0  0  0  0  0  0  0
    2.4935   14.5955   19.1920 C   0  0  0  0  0  0  0  0  0  0  0  0
    3.3222   13.5080   19.0950 C   0  0  0  0  0  0  0  0  0  0  0  0
    4.1061   13.4826   20.2072 O   0  0  0  0  0  0  0  0  0  0  0  0
  1  2  1  0
  2  3  1  0
  3  4  1  6
  3  5  1  0
  5  6  2  0
  5  7  1  0
  7  8  1  0
  8  9  1  0
  9 10  2  0
 10 11  1  0
 11 12  2  0
 12 13  1  0
 13  9  1  0
M  END
>  <inchikey>  (358) 
AXNCOQBNSRCGQR-UHFFFAOYSA-N

>  <energy_score>  (358) 
-26.872895

>  <subsites>  (358) 
1 - Active Site

>  <alias>  (358) 
C10627-P405

>  <tags>  (358) 
openbind_a71ev2a_c1_scaffolds,BulkDock Fragalysis export,openbind_a71ev2a_c1_knitwork_impure,fragmenstein_placed

>  <distance_score>  (358) 
0.840528

>  <placement_batch>  (358) 
openbind_a71ev2a_c1_knitwork_impure

>  <name>  (358) 
C10627-P405

>  <ref_mols>  (358) 
A3623a,A4570a

>  <smiles>  (358) 
CC[C@@H](C)C(=O)CSc1ncco1

>  <HIPPO Compound ID>  (358) 
722

>  <HIPPO Pose ID>  (358) 
406310

>  <ref_pdb>  (358) 
A3181b

$$$$
C10635-P405
     RDKit          3D

 14 14  0  0  0  0  0  0  0  0999 V2000
    8.3434   16.5177   22.0750 C   0  0  0  0  0  0  0  0  0  0  0  0
    7.3900   15.3287   22.0282 C   0  0  2  0  0  0  0  0  0  0  0  0
    5.9816   15.8044   22.4173 C   0  0  0  0  0  0  0  0  0  0  0  0
    4.9473   14.7062   22.4114 C   0  0  0  0  0  0  0  0  0  0  0  0
    4.8799   13.9965   23.4164 O   0  0  0  0  0  0  0  0  0  0  0  0
    4.1361   14.5737   21.2140 C   0  0  0  0  0  0  0  0  0  0  0  0
    3.5695   15.5661   20.5421 N   0  0  0  0  0  0  0  0  0  0  0  0
    2.8877   14.9159   19.5354 C   0  0  0  0  0  0  0  0  0  0  0  0
    3.1374   13.5694   19.5857 C   0  0  0  0  0  0  0  0  0  0  0  0
    3.9410   13.3367   20.6580 O   0  0  0  0  0  0  0  0  0  0  0  0
    7.9624   14.2039   22.8832 C   0  0  0  0  0  0  0  0  0  0  0  0
    7.8799   14.4280   24.2069 F   0  0  0  0  0  0  0  0  0  0  0  0
    9.2712   14.0164   22.5917 F   0  0  0  0  0  0  0  0  0  0  0  0
    7.3318   13.0429   22.5988 F   0  0  0  0  0  0  0  0  0  0  0  0
  2  1  1  1
  2  3  1  0
  3  4  1  0
  4  5  2  0
  4  6  1  0
  6  7  2  0
  7  8  1  0
  8  9  2  0
  9 10  1  0
  2 11  1  0
 11 12  1  0
 11 13  1  0
 11 14  1  0
 10  6  1  0
M  END
>  <inchikey>  (359) 
RVXGWTPTIOJIRD-UHFFFAOYSA-N

>  <energy_score>  (359) 
-20.312107

>  <subsites>  (359) 
1 - Active Site

>  <alias>  (359) 
C10635-P405

>  <tags>  (359) 
openbind_a71ev2a_c1_scaffolds,BulkDock Fragalysis export,openbind_a71ev2a_c1_knitwork_impure,fragmenstein_placed

>  <distance_score>  (359) 
0.999233

>  <placement_batch>  (359) 
openbind_a71ev2a_c1_knitwork_impure

>  <name>  (359) 
C10635-P405

>  <ref_mols>  (359) 
A3623a,A4570a

>  <smiles>  (359) 
C[C@H](CC(=O)c1ncco1)C(F)(F)F

>  <HIPPO Compound ID>  (359) 
44440

>  <HIPPO Pose ID>  (359) 
406311

>  <ref_pdb>  (359) 
A3181b

$$$$
C10655-P405
     RDKit          3D

 12 12  0  0  0  0  0  0  0  0999 V2000
    7.6771   14.2417   24.6088 C   0  0  0  0  0  0  0  0  0  0  0  0
    7.9281   14.6283   23.1492 C   0  0  0  0  0  0  0  0  0  0  0  0
    9.0813   13.7937   22.6139 C   0  0  0  0  0  0  0  0  0  0  0  0
    6.6832   14.4170   22.2745 C   0  0  0  0  0  0  0  0  0  0  0  0
    5.5686   15.4163   22.5149 C   0  0  0  0  0  0  0  0  0  0  0  0
    5.8103   16.6008   22.7466 O   0  0  0  0  0  0  0  0  0  0  0  0
    4.1505   14.9078   22.4742 C   0  0  0  0  0  0  0  0  0  0  0  0
    3.7083   14.6812   21.0854 C   0  0  0  0  0  0  0  0  0  0  0  0
    2.8202   15.3694   20.3952 N   0  0  0  0  0  0  0  0  0  0  0  0
    2.6810   14.6463   19.2365 C   0  0  0  0  0  0  0  0  0  0  0  0
    3.5349   13.5740   19.2458 C   0  0  0  0  0  0  0  0  0  0  0  0
    4.2022   13.5808   20.4342 O   0  0  0  0  0  0  0  0  0  0  0  0
  1  2  1  0
  2  3  1  0
  2  4  1  0
  4  5  1  0
  5  6  2  0
  5  7  1  0
  7  8  1  0
  8  9  2  0
  9 10  1  0
 10 11  2  0
 11 12  1  0
 12  8  1  0
M  END
>  <inchikey>  (360) 
YZDMAFVUISHMFV-UHFFFAOYSA-N

>  <energy_score>  (360) 
-28.721541

>  <subsites>  (360) 
1 - Active Site

>  <alias>  (360) 
C10655-P405

>  <tags>  (360) 
openbind_a71ev2a_c1_scaffolds,BulkDock Fragalysis export,openbind_a71ev2a_c1_knitwork_impure,fragmenstein_placed

>  <distance_score>  (360) 
0.962331

>  <placement_batch>  (360) 
openbind_a71ev2a_c1_knitwork_impure

>  <name>  (360) 
C10655-P405

>  <ref_mols>  (360) 
A3623a,A4570a

>  <smiles>  (360) 
CC(C)CC(=O)Cc1ncco1

>  <HIPPO Compound ID>  (360) 
31867

>  <HIPPO Pose ID>  (360) 
406319

>  <ref_pdb>  (360) 
A3181b

$$$$
C7352-P183
     RDKit          3D

 18 18  0  0  0  0  0  0  0  0999 V2000
    8.7680    8.6284   23.7217 C   0  0  0  0  0  0  0  0  0  0  0  0
    9.1735   10.0794   23.7665 C   0  0  0  0  0  0  0  0  0  0  0  0
    8.3239   11.0115   24.6796 C   0  0  0  0  0  0  0  0  0  0  0  0
    8.8819   12.4261   24.8704 C   0  0  0  0  0  0  0  0  0  0  0  0
   10.1316   12.6846   24.4585 C   0  0  0  0  0  0  0  0  0  0  0  0
   10.9176   13.9259   24.4890 C   0  0  0  0  0  0  0  0  0  0  0  0
   11.1163   14.6165   25.3994 O   0  0  0  0  0  0  0  0  0  0  0  0
   11.4614   13.9861   23.0604 N   0  0  0  0  0  0  0  0  0  0  0  0
   12.2848   14.9548   22.4261 C   0  0  0  0  0  0  0  0  0  0  0  0
   12.2040   14.7713   20.9289 C   0  0  0  0  0  0  0  0  0  0  0  0
   10.9468   15.3029   20.3604 C   0  0  0  0  0  0  0  0  0  0  0  0
   10.5637   15.3518   19.0459 C   0  0  0  0  0  0  0  0  0  0  0  0
    9.4664   16.1501   18.9599 O   0  0  0  0  0  0  0  0  0  0  0  0
    9.2267   16.5267   20.2465 C   0  0  0  0  0  0  0  0  0  0  0  0
   10.0409   15.9973   21.1246 N   0  0  0  0  0  0  0  0  0  0  0  0
    8.0354   13.4812   25.5730 C   0  0  0  0  0  0  0  0  0  0  0  0
    6.8969   14.1210   24.7796 C   0  0  0  0  0  0  0  0  0  0  0  0
    7.2350   14.4670   23.3449 C   0  0  0  0  0  0  0  0  0  0  0  0
  1  2  1  0
  2  3  1  0
  3  4  1  0
  4  5  2  3
  5  6  1  0
  6  7  2  0
  6  8  1  0
  8  9  1  0
  9 10  1  0
 10 11  1  0
 11 12  2  0
 12 13  1  0
 13 14  1  0
 14 15  2  0
  4 16  1  0
 16 17  1  0
 17 18  1  0
 15 11  1  0
M  END
>  <inchikey>  (361) 
OEOCKEJGVCIITQ-UHFFFAOYSA-N

>  <energy_score>  (361) 
-24.772783

>  <subsites>  (361) 
1 - Active Site

>  <alias>  (361) 
C7352-P183

>  <tags>  (361) 
openbind_a71ev2a_c1_scaffolds,BulkDock Fragalysis export,openbind_a71ev2a_c1_knitwork_impure,fragmenstein_placed

>  <distance_score>  (361) 
0.99731

>  <placement_batch>  (361) 
openbind_a71ev2a_c1_knitwork_impure

>  <name>  (361) 
C7352-P183

>  <ref_mols>  (361) 
A3623a,A3436a

>  <smiles>  (361) 
CCCC(=CC(=O)NCCc1cocn1)CCC

>  <HIPPO Compound ID>  (361) 
8059

>  <HIPPO Pose ID>  (361) 
407047

>  <ref_pdb>  (361) 
A3181b

$$$$
C1602-P183
     RDKit          3D

 18 18  0  0  0  0  0  0  0  0999 V2000
    6.3903   14.9494   26.1066 C   0  0  0  0  0  0  0  0  0  0  0  0
    7.8264   14.6674   25.6710 C   0  0  0  0  0  0  0  0  0  0  0  0
    7.9573   14.1115   24.2277 C   0  0  1  0  0  0  0  0  0  0  0  0
    7.2579   15.0270   23.1593 C   0  0  0  0  0  0  0  0  0  0  0  0
    6.2383   14.1959   22.3783 C   0  0  0  0  0  0  0  0  0  0  0  0
    6.6020   13.2853   21.7464 O   0  0  0  0  0  0  0  0  0  0  0  0
    4.8090   14.7023   22.6739 N   0  0  0  0  0  0  0  0  0  0  0  0
    3.5190   14.1351   22.3301 C   0  0  1  0  0  0  0  0  0  0  0  0
    2.4189   14.5425   23.3010 C   0  0  0  0  0  0  0  0  0  0  0  0
    3.1426   14.3237   20.8974 C   0  0  0  0  0  0  0  0  0  0  0  0
    2.3573   15.2311   20.3417 N   0  0  0  0  0  0  0  0  0  0  0  0
    2.0960   14.7057   19.0945 C   0  0  0  0  0  0  0  0  0  0  0  0
    2.8246   13.5610   18.9016 C   0  0  0  0  0  0  0  0  0  0  0  0
    3.4970   13.2988   20.0525 O   0  0  0  0  0  0  0  0  0  0  0  0
    9.4168   13.5326   23.8615 C   0  0  0  0  0  0  0  0  0  0  0  0
    9.3169   11.9911   23.9135 C   0  0  0  0  0  0  0  0  0  0  0  0
   10.5453   13.9276   24.8363 C   0  0  0  0  0  0  0  0  0  0  0  0
    9.9357   13.9073   22.4604 C   0  0  0  0  0  0  0  0  0  0  0  0
  1  2  1  0
  3  2  1  1
  3  4  1  0
  4  5  1  0
  5  6  2  0
  5  7  1  0
  7  8  1  0
  8  9  1  1
  8 10  1  0
 10 11  2  0
 11 12  1  0
 12 13  2  0
 13 14  1  0
  3 15  1  0
 15 16  1  0
 15 17  1  0
 15 18  1  0
 14 10  1  0
M  END
>  <inchikey>  (362) 
WCJVNOFYGXYGFG-UHFFFAOYSA-N

>  <energy_score>  (362) 
-20.886593

>  <subsites>  (362) 
1 - Active Site

>  <alias>  (362) 
C1602-P183

>  <tags>  (362) 
openbind_a71ev2a_c1_scaffolds,BulkDock Fragalysis export,openbind_a71ev2a_c1_knitwork_impure,fragmenstein_placed

>  <distance_score>  (362) 
0.990604

>  <placement_batch>  (362) 
openbind_a71ev2a_c1_knitwork_impure

>  <name>  (362) 
C1602-P183

>  <ref_mols>  (362) 
A3623a,A3436a

>  <smiles>  (362) 
CC[C@@H](CC(=O)N[C@@H](C)c1ncco1)C(C)(C)C

>  <HIPPO Compound ID>  (362) 
1602

>  <HIPPO Pose ID>  (362) 
407073

>  <ref_pdb>  (362) 
A3181b

$$$$
C2407-P186
     RDKit          3D

 13 13  0  0  0  0  0  0  0  0999 V2000
    7.9847    8.9155   24.9127 O   0  0  0  0  0  0  0  0  0  0  0  0
    8.8280    9.6116   24.3497 C   0  0  0  0  0  0  0  0  0  0  0  0
    8.7663   11.1335   24.3526 C   0  0  0  0  0  0  0  0  0  0  0  0
    7.9662   11.8339   25.4713 C   0  0  0  0  0  0  0  0  0  0  0  0
    6.6970   11.1109   25.9318 C   0  0  0  0  0  0  0  0  0  0  0  0
    5.8030   11.9213   26.8599 C   0  0  0  0  0  0  0  0  0  0  0  0
    5.5003   13.2265   26.3017 N   0  0  0  0  0  0  0  0  0  0  0  0
    6.7165   13.9807   26.0225 C   0  0  0  0  0  0  0  0  0  0  0  0
    7.6002   13.2554   25.0115 C   0  0  0  0  0  0  0  0  0  0  0  0
    9.9608    9.0242   23.5470 C   0  0  0  0  0  0  0  0  0  0  0  0
   11.1551    9.4197   24.0712 F   0  0  0  0  0  0  0  0  0  0  0  0
    9.9322    9.4559   22.2631 F   0  0  0  0  0  0  0  0  0  0  0  0
    9.9705    7.6714   23.5169 F   0  0  0  0  0  0  0  0  0  0  0  0
  1  2  2  0
  2  3  1  0
  3  4  1  0
  4  5  1  0
  5  6  1  0
  6  7  1  0
  7  8  1  0
  8  9  1  0
  2 10  1  0
 10 11  1  0
 10 12  1  0
 10 13  1  0
  9  4  1  0
M  END
>  <inchikey>  (363) 
ZHKWVPSCOFOVKQ-UHFFFAOYSA-N

>  <energy_score>  (363) 
-12.170812

>  <subsites>  (363) 
1 - Active Site

>  <alias>  (363) 
C2407-P186

>  <tags>  (363) 
openbind_a71ev2a_c1_scaffolds,BulkDock Fragalysis export,openbind_a71ev2a_c1_knitwork_impure,fragmenstein_placed

>  <distance_score>  (363) 
0.970498

>  <placement_batch>  (363) 
openbind_a71ev2a_c1_knitwork_impure

>  <name>  (363) 
C2407-P186

>  <ref_mols>  (363) 
A3483a,A1779a

>  <smiles>  (363) 
O=C(CC1CCNCC1)C(F)(F)F

>  <HIPPO Compound ID>  (363) 
2407

>  <HIPPO Pose ID>  (363) 
407189

>  <ref_pdb>  (363) 
A3181b

$$$$
C8903-P303
     RDKit          3D

 19 21  0  0  0  0  0  0  0  0999 V2000
    9.8113   12.4566   24.9726 O   0  0  0  0  0  0  0  0  0  0  0  0
    8.7335   12.8463   24.5255 C   0  0  0  0  0  0  0  0  0  0  0  0
    8.5617   13.4874   23.1572 C   0  0  0  0  0  0  0  0  0  0  0  0
    9.4571   14.6346   22.9440 N   0  0  0  0  0  0  0  0  0  0  0  0
   10.8730   14.2886   23.1598 C   0  0  0  0  0  0  0  0  0  0  0  0
   11.8326   15.0688   22.2787 C   0  0  0  0  0  0  0  0  0  0  0  0
   11.5743   14.7304   20.8275 C   0  0  0  0  0  0  0  0  0  0  0  0
   10.0861   14.7099   20.5118 C   0  0  0  0  0  0  0  0  0  0  0  0
    9.2150   15.2633   21.6274 C   0  0  0  0  0  0  0  0  0  0  0  0
    7.5327   12.6097   25.3462 C   0  0  0  0  0  0  0  0  0  0  0  0
    7.3414   11.3420   25.8954 C   0  0  0  0  0  0  0  0  0  0  0  0
    6.2563   11.1118   26.7408 C   0  0  0  0  0  0  0  0  0  0  0  0
    5.3684   12.1422   27.0669 C   0  0  0  0  0  0  0  0  0  0  0  0
    5.5339   13.3988   26.4540 C   0  0  0  0  0  0  0  0  0  0  0  0
    6.6344   13.6392   25.6166 C   0  0  0  0  0  0  0  0  0  0  0  0
    4.5605   14.5176   26.7213 C   0  0  0  0  0  0  0  0  0  0  0  0
    3.2402   13.9911   27.2696 C   0  0  0  0  0  0  0  0  0  0  0  0
    3.5140   12.9932   28.3832 C   0  0  0  0  0  0  0  0  0  0  0  0
    4.2545   11.8464   27.8703 N   0  0  0  0  0  0  0  0  0  0  0  0
  1  2  2  0
  2  3  1  0
  3  4  1  0
  4  5  1  0
  5  6  1  0
  6  7  1  0
  7  8  1  0
  8  9  1  0
  2 10  1  0
 10 11  2  0
 11 12  1  0
 12 13  2  0
 13 14  1  0
 14 15  2  0
 14 16  1  0
 16 17  1  0
 17 18  1  0
 18 19  1  0
  9  4  1  0
 15 10  1  0
 19 13  1  0
M  END
>  <inchikey>  (364) 
VUSCGEMVKVOGIF-UHFFFAOYSA-N

>  <energy_score>  (364) 
-35.566771

>  <subsites>  (364) 
1 - Active Site

>  <alias>  (364) 
C8903-P303

>  <tags>  (364) 
openbind_a71ev2a_c1_scaffolds,BulkDock Fragalysis export,openbind_a71ev2a_c1_knitwork_impure,fragmenstein_placed

>  <distance_score>  (364) 
0.915323

>  <placement_batch>  (364) 
openbind_a71ev2a_c1_knitwork_impure

>  <name>  (364) 
C8903-P303

>  <ref_mols>  (364) 
A1778a,A4320a

>  <smiles>  (364) 
O=C(CN1CCCCC1)c1ccc2c(c1)CCCN2

>  <HIPPO Compound ID>  (364) 
26601

>  <HIPPO Pose ID>  (364) 
407940

>  <ref_pdb>  (364) 
A3181b

$$$$
C935-P356
     RDKit          3D

 22 25  0  0  0  0  0  0  0  0999 V2000
   21.0354   15.4761    1.5430 C   0  0  0  0  0  0  0  0  0  0  0  0
   22.1491   14.6073    2.1678 C   0  0  0  0  0  0  0  0  0  0  0  0
   23.1766   15.5710    2.7707 C   0  0  0  0  0  0  0  0  0  0  0  0
   21.4662   13.7365    3.2143 C   0  0  0  0  0  0  0  0  0  0  0  0
   22.7492   13.7147    1.1092 C   0  0  0  0  0  0  0  0  0  0  0  0
   22.1626   13.4506   -0.0445 N   0  0  0  0  0  0  0  0  0  0  0  0
   22.9676   12.6237   -0.7745 N   0  0  0  0  0  0  0  0  0  0  0  0
   24.0374   12.3769   -0.0587 C   0  0  0  0  0  0  0  0  0  0  0  0
   23.9281   13.0079    1.1540 N   0  0  0  0  0  0  0  0  0  0  0  0
   24.9662   12.9883    2.1640 C   0  0  0  0  0  0  0  0  0  0  0  0
   26.0935   11.9797    1.8802 C   0  0  2  0  0  0  0  0  0  0  0  0
   27.3050   12.3507    2.6577 C   0  0  0  0  0  0  0  0  0  0  0  0
   27.9839   13.4756    2.6368 N   0  0  0  0  0  0  0  0  0  0  0  0
   29.0114   13.2003    3.5104 C   0  0  0  0  0  0  0  0  0  0  0  0
   30.1539   14.2400    3.8301 C   0  0  2  0  0  0  0  0  0  0  0  0
   30.1460   14.7933    5.2646 C   0  0  0  0  0  0  0  0  0  0  0  0
   29.2986   15.9385    4.6950 C   0  0  0  0  0  0  0  0  0  0  0  0
   29.8371   15.6191    3.3532 N   0  0  0  0  0  0  0  0  0  0  0  0
   28.9665   11.9826    4.0639 N   0  0  0  0  0  0  0  0  0  0  0  0
   27.8267   11.4112    3.4957 O   0  0  0  0  0  0  0  0  0  0  0  0
   26.4351   11.9359    0.3813 C   0  0  0  0  0  0  0  0  0  0  0  0
   25.2106   11.5590   -0.4435 C   0  0  0  0  0  0  0  0  0  0  0  0
  1  2  1  0
  2  3  1  0
  2  4  1  0
  2  5  1  0
  5  6  2  0
  6  7  1  0
  7  8  2  0
  8  9  1  0
  9 10  1  0
 10 11  1  0
 11 12  1  1
 12 13  2  0
 13 14  1  0
 15 14  1  1
 15 16  1  0
 16 17  1  0
 17 18  1  0
 14 19  2  0
 19 20  1  0
 11 21  1  0
 21 22  1  0
  9  5  1  0
 20 12  1  0
 22  8  1  0
 18 15  1  0
M  END
>  <inchikey>  (365) 
RMEDOQBOVLJYDX-UHFFFAOYSA-N

>  <energy_score>  (365) 
-52.182435

>  <subsites>  (365) 
6 - A0486/A/147/1,1 - Active Site

>  <alias>  (365) 
C935-P356

>  <tags>  (365) 
openbind_a71ev2a_c1_scaffolds,BulkDock Fragalysis export,openbind_a71ev2a_c1_knitwork_impure,fragmenstein_placed

>  <distance_score>  (365) 
0.853779

>  <placement_batch>  (365) 
openbind_a71ev2a_c1_knitwork_impure

>  <name>  (365) 
C935-P356

>  <ref_mols>  (365) 
A0239a,A4418a

>  <smiles>  (365) 
CC(C)(C)c1nnc2n1C[C@H](c1nc([C@@H]3CCN3)no1)CC2

>  <HIPPO Compound ID>  (365) 
16455

>  <HIPPO Pose ID>  (365) 
408891

>  <ref_pdb>  (365) 
A3181b

$$$$
C2799-P440
     RDKit          3D

 14 16  0  0  0  0  0  0  0  0999 V2000
   11.2871   15.3295   21.7433 C   0  0  0  0  0  0  0  0  0  0  0  0
   10.1698   15.0087   20.7603 C   0  0  0  0  0  0  0  0  0  0  0  0
    8.8941   15.1091   21.3955 O   0  0  0  0  0  0  0  0  0  0  0  0
    8.7572   14.2051   22.4940 C   0  0  0  0  0  0  0  0  0  0  0  0
    9.7842   14.5287   23.5965 C   0  0  1  0  0  0  0  0  0  0  0  0
    9.4921   13.7307   24.7996 N   0  0  0  0  0  0  0  0  0  0  0  0
   10.0175   12.3602   24.8333 C   0  0  0  0  0  0  0  0  0  0  0  0
   11.4330   12.2475   25.4487 C   0  0  0  0  0  0  0  0  0  0  0  0
   11.5985   12.9364   26.7397 N   0  0  0  0  0  0  0  0  0  0  0  0
   11.1353   14.3266   26.6481 C   0  0  0  0  0  0  0  0  0  0  0  0
    9.7198   14.4123   26.1011 C   0  0  0  0  0  0  0  0  0  0  0  0
    8.8940   15.6401   26.4325 C   0  0  0  0  0  0  0  0  0  0  0  0
    8.5848   14.3386   27.1034 C   0  0  0  0  0  0  0  0  0  0  0  0
   11.1948   14.4452   22.9878 C   0  0  0  0  0  0  0  0  0  0  0  0
  1  2  1  0
  2  3  1  0
  3  4  1  0
  4  5  1  0
  5  6  1  1
  6  7  1  0
  7  8  1  0
  8  9  1  0
  9 10  1  0
 10 11  1  0
 11 12  1  0
 12 13  1  0
  5 14  1  0
 14  1  1  0
 11  6  1  0
 13 11  1  0
M  END
>  <inchikey>  (366) 
BPUIRSFWYLCZDK-UHFFFAOYSA-N

>  <energy_score>  (366) 
-63.433133

>  <subsites>  (366) 
1 - Active Site

>  <alias>  (366) 
C2799-P440

>  <tags>  (366) 
openbind_a71ev2a_c1_scaffolds,BulkDock Fragalysis export,openbind_a71ev2a_c1_knitwork_impure,fragmenstein_placed

>  <distance_score>  (366) 
0.862998

>  <placement_batch>  (366) 
openbind_a71ev2a_c1_knitwork_impure

>  <name>  (366) 
C2799-P440

>  <ref_mols>  (366) 
A0473a,A4707a

>  <smiles>  (366) 
C1COC[C@@H](N2CCNCC23CC3)C1

>  <HIPPO Compound ID>  (366) 
15985

>  <HIPPO Pose ID>  (366) 
409247

>  <ref_pdb>  (366) 
A3181b

$$$$
C2408-P218
     RDKit          3D

 15 15  0  0  0  0  0  0  0  0999 V2000
    6.0798   12.3007   26.9434 C   0  0  0  0  0  0  0  0  0  0  0  0
    7.1487   13.1761   26.3063 C   0  0  0  0  0  0  0  0  0  0  0  0
    7.7818   12.5856   25.0398 C   0  0  2  0  0  0  0  0  0  0  0  0
    8.0095   11.0740   25.0902 C   0  0  0  0  0  0  0  0  0  0  0  0
    9.1318   13.2549   24.7448 C   0  0  0  0  0  0  0  0  0  0  0  0
   10.0239   13.1372   25.5986 O   0  0  0  0  0  0  0  0  0  0  0  0
    9.4414   13.8398   23.3185 C   0  0  0  0  0  0  0  0  0  0  0  0
    8.1936   13.8552   22.4332 C   0  0  0  0  0  0  0  0  0  0  0  0
   10.4326   12.8059   22.7759 C   0  0  0  0  0  0  0  0  0  0  0  0
    9.9743   15.2321   23.4105 N   0  0  0  0  0  0  0  0  0  0  0  0
   11.3428   15.3878   23.9213 C   0  0  0  0  0  0  0  0  0  0  0  0
   12.4571   15.2170   22.8824 C   0  0  0  0  0  0  0  0  0  0  0  0
   12.2296   16.0185   21.6084 C   0  0  0  0  0  0  0  0  0  0  0  0
   10.8145   15.8340   21.0845 C   0  0  0  0  0  0  0  0  0  0  0  0
    9.8135   16.0851   22.2087 C   0  0  0  0  0  0  0  0  0  0  0  0
  1  2  1  0
  2  3  1  0
  3  4  1  1
  3  5  1  0
  5  6  2  0
  5  7  1  0
  7  8  1  0
  7  9  1  0
  7 10  1  0
 10 11  1  0
 11 12  1  0
 12 13  1  0
 13 14  1  0
 14 15  1  0
 15 10  1  0
M  END
>  <inchikey>  (367) 
YFNRJWQADGKRAX-UHFFFAOYSA-N

>  <energy_score>  (367) 
-33.821625

>  <subsites>  (367) 
1 - Active Site

>  <alias>  (367) 
C2408-P218

>  <tags>  (367) 
openbind_a71ev2a_c1_scaffolds,BulkDock Fragalysis export,openbind_a71ev2a_c1_knitwork_impure,fragmenstein_placed

>  <distance_score>  (367) 
0.994461

>  <placement_batch>  (367) 
openbind_a71ev2a_c1_knitwork_impure

>  <name>  (367) 
C2408-P218

>  <ref_mols>  (367) 
A3557b,A1779a

>  <smiles>  (367) 
CC[C@H](C)C(=O)C(C)(C)N1CCCCC1

>  <HIPPO Compound ID>  (367) 
10627

>  <HIPPO Pose ID>  (367) 
409737

>  <ref_pdb>  (367) 
A3181b

$$$$
C2410-P218
     RDKit          3D

 14 14  0  0  0  0  0  0  0  0999 V2000
   11.9335   14.5896   22.4860 C   0  0  0  0  0  0  0  0  0  0  0  0
   11.0189   15.3419   23.4142 C   0  0  0  0  0  0  0  0  0  0  0  0
   11.3454   15.0481   24.6994 F   0  0  0  0  0  0  0  0  0  0  0  0
   11.2882   16.6675   23.2749 F   0  0  0  0  0  0  0  0  0  0  0  0
    9.5266   15.1319   23.1776 C   0  0  0  0  0  0  0  0  0  0  0  0
    8.9623   13.7178   23.3862 C   0  0  0  0  0  0  0  0  0  0  0  0
    9.3418   13.1259   24.7351 C   0  0  2  0  0  0  0  0  0  0  0  0
   10.4782   12.3789   24.5586 F   0  0  0  0  0  0  0  0  0  0  0  0
    8.3166   12.2241   25.4345 C   0  0  1  0  0  0  0  0  0  0  0  0
    7.1017   12.9858   25.9672 C   0  0  0  0  0  0  0  0  0  0  0  0
    6.3402   12.1252   26.9739 C   0  0  0  0  0  0  0  0  0  0  0  0
    6.0609   10.7243   26.4426 C   0  0  0  0  0  0  0  0  0  0  0  0
    7.2366   10.1116   25.6825 C   0  0  0  0  0  0  0  0  0  0  0  0
    7.8771   11.0200   24.7236 N   0  0  0  0  0  0  0  0  0  0  0  0
  1  2  1  0
  2  3  1  0
  2  4  1  0
  2  5  1  0
  5  6  1  0
  6  7  1  0
  7  8  1  6
  7  9  1  0
  9 10  1  6
 10 11  1  0
 11 12  1  0
 12 13  1  0
 13 14  1  0
 14  9  1  0
M  END
>  <inchikey>  (368) 
JNIRJKWCZGUUML-UHFFFAOYSA-N

>  <energy_score>  (368) 
-35.659495

>  <subsites>  (368) 
1 - Active Site

>  <alias>  (368) 
C2410-P218

>  <tags>  (368) 
openbind_a71ev2a_c1_scaffolds,BulkDock Fragalysis export,openbind_a71ev2a_c1_knitwork_impure,fragmenstein_placed

>  <distance_score>  (368) 
0.9058

>  <placement_batch>  (368) 
openbind_a71ev2a_c1_knitwork_impure

>  <name>  (368) 
C2410-P218

>  <ref_mols>  (368) 
A3557b,A1779a

>  <smiles>  (368) 
CC(F)(F)CC[C@H](F)[C@H]1CCCCN1

>  <HIPPO Compound ID>  (368) 
31899

>  <HIPPO Pose ID>  (368) 
409739

>  <ref_pdb>  (368) 
A3181b

$$$$
C2414-P218
     RDKit          3D

 16 16  0  0  0  0  0  0  0  0999 V2000
    5.9047   10.2249   26.8893 C   0  0  0  0  0  0  0  0  0  0  0  0
    6.4531   11.2244   26.5148 C   0  0  0  0  0  0  0  0  0  0  0  0
    7.1604   12.4030   25.9992 C   0  0  0  0  0  0  0  0  0  0  0  0
    8.1603   11.9758   24.9383 C   0  0  0  0  0  0  0  0  0  0  0  0
    9.2048   13.0234   24.6083 C   0  0  0  0  0  0  0  0  0  0  0  0
   10.3406   12.8162   25.0564 O   0  0  0  0  0  0  0  0  0  0  0  0
    8.7993   14.3256   23.7838 C   0  0  1  0  0  0  0  0  0  0  0  0
    7.5723   14.0002   22.9085 C   0  0  0  0  0  0  0  0  0  0  0  0
    8.4150   15.4138   24.8369 C   0  0  0  0  0  0  0  0  0  0  0  0
    7.6725   16.6366   24.3138 C   0  0  0  0  0  0  0  0  0  0  0  0
    9.9657   14.6670   22.9087 N   0  0  0  0  0  0  0  0  0  0  0  0
   11.0887   15.3124   23.6059 C   0  0  0  0  0  0  0  0  0  0  0  0
   12.3476   15.2182   22.7554 C   0  0  0  0  0  0  0  0  0  0  0  0
   12.1592   15.9595   21.4436 C   0  0  0  0  0  0  0  0  0  0  0  0
   10.9376   15.4152   20.7238 C   0  0  0  0  0  0  0  0  0  0  0  0
    9.7034   15.3639   21.6335 C   0  0  0  0  0  0  0  0  0  0  0  0
  1  2  3  0
  2  3  1  0
  3  4  1  0
  4  5  1  0
  5  6  2  0
  5  7  1  0
  7  8  1  6
  7  9  1  0
  9 10  1  0
  7 11  1  0
 11 12  1  0
 12 13  1  0
 13 14  1  0
 14 15  1  0
 15 16  1  0
 16 11  1  0
M  END
>  <inchikey>  (369) 
FZXVNLASEWYDBT-UHFFFAOYSA-N

>  <energy_score>  (369) 
-32.596698

>  <subsites>  (369) 
1 - Active Site

>  <alias>  (369) 
C2414-P218

>  <tags>  (369) 
openbind_a71ev2a_c1_scaffolds,BulkDock Fragalysis export,openbind_a71ev2a_c1_knitwork_impure,fragmenstein_placed

>  <distance_score>  (369) 
0.808896

>  <placement_batch>  (369) 
openbind_a71ev2a_c1_knitwork_impure

>  <name>  (369) 
C2414-P218

>  <ref_mols>  (369) 
A3557b,A1779a

>  <smiles>  (369) 
C#CCCC(=O)[C@@](C)(CC)N1CCCCC1

>  <HIPPO Compound ID>  (369) 
13918

>  <HIPPO Pose ID>  (369) 
409742

>  <ref_pdb>  (369) 
A3181b

$$$$
C1791-P306
     RDKit          3D

 15 17  0  0  0  0  0  0  0  0999 V2000
    8.5073    9.3896   24.4551 C   0  0  0  0  0  0  0  0  0  0  0  0
    7.5857   10.0819   25.4930 C   0  0  0  0  0  0  0  0  0  0  0  0
    7.2529   11.5659   25.3081 C   0  0  0  0  0  0  0  0  0  0  0  0
    8.2160   12.1614   24.3926 C   0  0  0  0  0  0  0  0  0  0  0  0
    8.1458   13.4604   24.0425 O   0  0  0  0  0  0  0  0  0  0  0  0
    9.2140   13.5875   23.1943 C   0  0  0  0  0  0  0  0  0  0  0  0
    9.6292   14.9685   22.9055 C   0  0  0  0  0  0  0  0  0  0  0  0
   11.1246   15.0843   23.2199 C   0  0  0  0  0  0  0  0  0  0  0  0
   12.0002   14.6822   22.0534 C   0  0  0  0  0  0  0  0  0  0  0  0
   11.6181   15.4368   20.8741 N   0  0  0  0  0  0  0  0  0  0  0  0
   10.2721   15.0749   20.4507 C   0  0  0  0  0  0  0  0  0  0  0  0
    9.2419   15.4448   21.5072 C   0  0  0  0  0  0  0  0  0  0  0  0
    9.9033   12.4859   22.9779 N   0  0  0  0  0  0  0  0  0  0  0  0
    9.2783   11.5837   23.7576 C   0  0  0  0  0  0  0  0  0  0  0  0
    9.6838   10.1916   23.9215 C   0  0  0  0  0  0  0  0  0  0  0  0
  1  2  1  0
  2  3  1  0
  3  4  1  0
  4  5  1  0
  5  6  1  0
  6  7  1  0
  7  8  1  0
  8  9  1  0
  9 10  1  0
 10 11  1  0
 11 12  1  0
  6 13  2  0
 13 14  1  0
 14 15  1  0
 15  1  1  0
 14  4  2  0
 12  7  1  0
M  END
>  <inchikey>  (370) 
ILEMUDAQJVYUBR-UHFFFAOYSA-N

>  <energy_score>  (370) 
-30.320899

>  <subsites>  (370) 
1 - Active Site

>  <alias>  (370) 
C1791-P306

>  <tags>  (370) 
openbind_a71ev2a_c1_scaffolds,BulkDock Fragalysis export,openbind_a71ev2a_c1_knitwork_impure,fragmenstein_placed

>  <distance_score>  (370) 
0.986439

>  <placement_batch>  (370) 
openbind_a71ev2a_c1_knitwork_impure

>  <name>  (370) 
C1791-P306

>  <ref_mols>  (370) 
A3623a,A4322a

>  <smiles>  (370) 
C1CCc2oc(C3CCNCC3)nc2C1

>  <HIPPO Compound ID>  (370) 
30751

>  <HIPPO Pose ID>  (370) 
409827

>  <ref_pdb>  (370) 
A0473a

$$$$
C1783-P196
     RDKit          3D

 15 17  0  0  0  0  0  0  0  0999 V2000
   11.6108   15.4036   21.0495 C   0  0  0  0  0  0  0  0  0  0  0  0
   11.8385   15.0251   22.5054 C   0  0  0  0  0  0  0  0  0  0  0  0
   10.8604   15.7732   23.4041 C   0  0  0  0  0  0  0  0  0  0  0  0
    9.4000   15.6447   22.9486 C   0  0  2  0  0  0  0  0  0  0  0  0
    8.8232   14.3125   23.3880 C   0  0  0  0  0  0  0  0  0  0  0  0
    9.2966   13.1218   23.0722 N   0  0  0  0  0  0  0  0  0  0  0  0
    8.6349   12.1304   23.7647 C   0  0  0  0  0  0  0  0  0  0  0  0
    7.6177   12.5821   24.5705 C   0  0  0  0  0  0  0  0  0  0  0  0
    7.4910   14.2839   24.4722 S   0  0  0  0  0  0  0  0  0  0  0  0
    6.7011   11.8267   25.4405 C   0  0  0  0  0  0  0  0  0  0  0  0
    7.0340   10.0551   25.5615 S   0  0  0  0  0  0  0  0  0  0  0  0
    8.0996    9.6818   24.1335 C   0  0  0  0  0  0  0  0  0  0  0  0
    9.0715   10.7220   23.6110 C   0  0  0  0  0  0  0  0  0  0  0  0
    9.2345   15.9387   21.5216 N   0  0  0  0  0  0  0  0  0  0  0  0
   10.1516   15.2074   20.6524 C   0  0  0  0  0  0  0  0  0  0  0  0
  1  2  1  0
  2  3  1  0
  3  4  1  0
  4  5  1  6
  5  6  2  0
  6  7  1  0
  7  8  2  0
  8  9  1  0
  8 10  1  0
 10 11  1  0
 11 12  1  0
 12 13  1  0
  4 14  1  0
 14 15  1  0
 15  1  1  0
  9  5  1  0
 13  7  1  0
M  END
>  <inchikey>  (371) 
KYJVTOFXJSRGMR-UHFFFAOYSA-N

>  <energy_score>  (371) 
-50.276435

>  <subsites>  (371) 
1 - Active Site

>  <alias>  (371) 
C1783-P196

>  <tags>  (371) 
openbind_a71ev2a_c1_scaffolds,BulkDock Fragalysis export,openbind_a71ev2a_c1_knitwork_impure,fragmenstein_placed

>  <distance_score>  (371) 
0.74586

>  <placement_batch>  (371) 
openbind_a71ev2a_c1_knitwork_impure

>  <name>  (371) 
C1783-P196

>  <ref_mols>  (371) 
A3623a,A3616a

>  <smiles>  (371) 
C1CC[C@H](c2nc3c(s2)CSCC3)NC1

>  <HIPPO Compound ID>  (371) 
2306

>  <HIPPO Pose ID>  (371) 
410045

>  <ref_pdb>  (371) 
A0473a

$$$$
C1795-P196
     RDKit          3D

 15 17  0  0  0  0  0  0  0  0999 V2000
   11.5291   15.5479   20.9822 C   0  0  0  0  0  0  0  0  0  0  0  0
   11.8855   15.0220   22.3661 C   0  0  0  0  0  0  0  0  0  0  0  0
   10.9640   15.6002   23.4321 C   0  0  0  0  0  0  0  0  0  0  0  0
    9.5498   15.4022   23.1177 N   0  0  0  0  0  0  0  0  0  0  0  0
    9.0198   14.2095   23.4955 C   0  0  0  0  0  0  0  0  0  0  0  0
    9.5189   13.0218   23.2161 N   0  0  0  0  0  0  0  0  0  0  0  0
    8.7757   12.0281   23.8117 C   0  0  0  0  0  0  0  0  0  0  0  0
    7.7352   12.4828   24.5837 C   0  0  0  0  0  0  0  0  0  0  0  0
    7.6228   14.1757   24.5098 S   0  0  0  0  0  0  0  0  0  0  0  0
    6.7896   11.6537   25.3554 C   0  0  0  0  0  0  0  0  0  0  0  0
    7.2001   10.1821   25.3525 C   0  0  0  0  0  0  0  0  0  0  0  0
    8.0191    9.6593   24.1709 C   0  0  0  0  0  0  0  0  0  0  0  0
    9.0950   10.5895   23.6110 C   0  0  0  0  0  0  0  0  0  0  0  0
    9.1627   15.9038   21.7877 C   0  0  0  0  0  0  0  0  0  0  0  0
   10.0492   15.3259   20.6857 C   0  0  0  0  0  0  0  0  0  0  0  0
  1  2  1  0
  2  3  1  0
  3  4  1  0
  4  5  1  0
  5  6  2  0
  6  7  1  0
  7  8  2  0
  8  9  1  0
  8 10  1  0
 10 11  1  0
 11 12  1  0
 12 13  1  0
  4 14  1  0
 14 15  1  0
 15  1  1  0
  9  5  1  0
 13  7  1  0
M  END
>  <inchikey>  (372) 
OOKCZDOQBFPXBA-UHFFFAOYSA-N

>  <energy_score>  (372) 
-74.147185

>  <subsites>  (372) 
1 - Active Site

>  <alias>  (372) 
C1795-P196

>  <tags>  (372) 
openbind_a71ev2a_c1_scaffolds,BulkDock Fragalysis export,openbind_a71ev2a_c1_knitwork_impure,fragmenstein_placed

>  <distance_score>  (372) 
0.821261

>  <placement_batch>  (372) 
openbind_a71ev2a_c1_knitwork_impure

>  <name>  (372) 
C1795-P196

>  <ref_mols>  (372) 
A3623a,A3616a

>  <smiles>  (372) 
C1CCN(c2nc3c(s2)CCCC3)CC1

>  <HIPPO Compound ID>  (372) 
10439

>  <HIPPO Pose ID>  (372) 
410047

>  <ref_pdb>  (372) 
A0473a

$$$$
C1805-P196
     RDKit          3D

 15 17  0  0  0  0  0  0  0  0999 V2000
   11.8039   15.0706   22.4531 C   0  0  0  0  0  0  0  0  0  0  0  0
   10.8565   15.7874   23.4091 C   0  0  0  0  0  0  0  0  0  0  0  0
    9.3889   15.6876   22.9826 C   0  0  0  0  0  0  0  0  0  0  0  0
    8.8097   14.3604   23.4017 C   0  0  0  0  0  0  0  0  0  0  0  0
    9.2925   13.1781   23.0808 N   0  0  0  0  0  0  0  0  0  0  0  0
    8.6341   12.1770   23.7628 C   0  0  0  0  0  0  0  0  0  0  0  0
    7.6107   12.6160   24.5676 C   0  0  0  0  0  0  0  0  0  0  0  0
    7.4702   14.3173   24.4746 S   0  0  0  0  0  0  0  0  0  0  0  0
    6.7010   11.8488   25.4346 C   0  0  0  0  0  0  0  0  0  0  0  0
    7.0524   10.0800   25.5542 S   0  0  0  0  0  0  0  0  0  0  0  0
    8.1249    9.7218   24.1270 C   0  0  0  0  0  0  0  0  0  0  0  0
    9.0870   10.7743   23.6096 C   0  0  0  0  0  0  0  0  0  0  0  0
    9.2170   15.9721   21.4884 C   0  0  0  0  0  0  0  0  0  0  0  0
   10.2536   15.2618   20.6245 C   0  0  0  0  0  0  0  0  0  0  0  0
   11.6167   15.5206   21.0810 N   0  0  0  0  0  0  0  0  0  0  0  0
  1  2  1  0
  2  3  1  0
  3  4  1  0
  4  5  2  0
  5  6  1  0
  6  7  2  0
  7  8  1  0
  7  9  1  0
  9 10  1  0
 10 11  1  0
 11 12  1  0
  3 13  1  0
 13 14  1  0
 14 15  1  0
 15  1  1  0
  8  4  1  0
 12  6  1  0
M  END
>  <inchikey>  (373) 
IMAPXTOLBMFUCR-UHFFFAOYSA-N

>  <energy_score>  (373) 
-78.747878

>  <subsites>  (373) 
1 - Active Site

>  <alias>  (373) 
C1805-P196

>  <tags>  (373) 
openbind_a71ev2a_c1_scaffolds,BulkDock Fragalysis export,openbind_a71ev2a_c1_knitwork_impure,fragmenstein_placed

>  <distance_score>  (373) 
0.737424

>  <placement_batch>  (373) 
openbind_a71ev2a_c1_knitwork_impure

>  <name>  (373) 
C1805-P196

>  <ref_mols>  (373) 
A3623a,A3616a

>  <smiles>  (373) 
C1CC(c2nc3c(s2)CSCC3)CCN1

>  <HIPPO Compound ID>  (373) 
82705

>  <HIPPO Pose ID>  (373) 
410052

>  <ref_pdb>  (373) 
A0473a

$$$$
C1810-P196
     RDKit          3D

 15 17  0  0  0  0  0  0  0  0999 V2000
    7.1773   10.2695   25.3239 C   0  0  0  0  0  0  0  0  0  0  0  0
    7.9355    9.5135   24.2281 C   0  0  0  0  0  0  0  0  0  0  0  0
    9.1788   10.1867   23.6463 C   0  0  0  0  0  0  0  0  0  0  0  0
    9.1112   11.6642   23.7904 C   0  0  0  0  0  0  0  0  0  0  0  0
   10.2812   12.7229   23.1849 S   0  0  0  0  0  0  0  0  0  0  0  0
    9.2786   14.0652   23.5679 C   0  0  0  0  0  0  0  0  0  0  0  0
    9.6169   15.4776   23.1596 C   0  0  0  0  0  0  0  0  0  0  0  0
   11.0994   15.8269   23.3023 C   0  0  0  0  0  0  0  0  0  0  0  0
   11.9473   15.4673   22.0819 C   0  0  0  0  0  0  0  0  0  0  0  0
   11.3606   15.9693   20.8510 N   0  0  0  0  0  0  0  0  0  0  0  0
   10.0196   15.4383   20.6380 C   0  0  0  0  0  0  0  0  0  0  0  0
    9.0765   15.8370   21.7687 C   0  0  0  0  0  0  0  0  0  0  0  0
    8.2081   13.7541   24.2735 N   0  0  0  0  0  0  0  0  0  0  0  0
    8.1249   12.3877   24.4157 C   0  0  0  0  0  0  0  0  0  0  0  0
    6.9844   11.7726   25.1221 C   0  0  0  0  0  0  0  0  0  0  0  0
  1  2  1  0
  2  3  1  0
  3  4  1  0
  4  5  1  0
  5  6  1  0
  6  7  1  0
  7  8  1  0
  8  9  1  0
  9 10  1  0
 10 11  1  0
 11 12  1  0
  6 13  2  0
 13 14  1  0
 14 15  1  0
 15  1  1  0
 14  4  2  0
 12  7  1  0
M  END
>  <inchikey>  (374) 
JMKABZRQVLZKMP-UHFFFAOYSA-N

>  <energy_score>  (374) 
-34.277456

>  <subsites>  (374) 
1 - Active Site

>  <alias>  (374) 
C1810-P196

>  <tags>  (374) 
openbind_a71ev2a_c1_scaffolds,BulkDock Fragalysis export,openbind_a71ev2a_c1_knitwork_impure,fragmenstein_placed

>  <distance_score>  (374) 
0.93026

>  <placement_batch>  (374) 
openbind_a71ev2a_c1_knitwork_impure

>  <name>  (374) 
C1810-P196

>  <ref_mols>  (374) 
A3623a,A3616a

>  <smiles>  (374) 
C1CCc2sc(C3CCNCC3)nc2C1

>  <HIPPO Compound ID>  (374) 
678

>  <HIPPO Pose ID>  (374) 
410053

>  <ref_pdb>  (374) 
A0473a

$$$$
C8903-P225
     RDKit          3D

 19 21  0  0  0  0  0  0  0  0999 V2000
    9.2118   13.8840   25.5103 O   0  0  0  0  0  0  0  0  0  0  0  0
    8.6003   13.2414   24.6575 C   0  0  0  0  0  0  0  0  0  0  0  0
    8.8288   13.3206   23.1537 C   0  0  0  0  0  0  0  0  0  0  0  0
    9.6712   14.4762   22.8097 N   0  0  0  0  0  0  0  0  0  0  0  0
   11.0836   14.2048   23.1253 C   0  0  0  0  0  0  0  0  0  0  0  0
   11.9074   15.4611   22.8966 C   0  0  0  0  0  0  0  0  0  0  0  0
   11.8221   15.9028   21.4458 C   0  0  0  0  0  0  0  0  0  0  0  0
   10.3648   16.0715   21.0339 C   0  0  0  0  0  0  0  0  0  0  0  0
    9.5327   14.8374   21.3891 C   0  0  0  0  0  0  0  0  0  0  0  0
    7.5717   12.2916   25.1321 C   0  0  0  0  0  0  0  0  0  0  0  0
    7.6399   10.9399   24.8065 C   0  0  0  0  0  0  0  0  0  0  0  0
    6.8041   10.0399   25.4726 C   0  0  0  0  0  0  0  0  0  0  0  0
    5.9052   10.4678   26.4611 C   0  0  0  0  0  0  0  0  0  0  0  0
    5.8185   11.8402   26.7434 C   0  0  0  0  0  0  0  0  0  0  0  0
    6.6355   12.7499   26.0621 C   0  0  0  0  0  0  0  0  0  0  0  0
    4.8733   12.3341   27.8079 C   0  0  0  0  0  0  0  0  0  0  0  0
    4.6906   11.2812   28.8951 C   0  0  0  0  0  0  0  0  0  0  0  0
    4.2998    9.9522   28.2670 C   0  0  0  0  0  0  0  0  0  0  0  0
    5.2768    9.5362   27.2787 N   0  0  0  0  0  0  0  0  0  0  0  0
  1  2  2  0
  2  3  1  0
  3  4  1  0
  4  5  1  0
  5  6  1  0
  6  7  1  0
  7  8  1  0
  8  9  1  0
  2 10  1  0
 10 11  2  0
 11 12  1  0
 12 13  2  0
 13 14  1  0
 14 15  2  0
 14 16  1  0
 16 17  1  0
 17 18  1  0
 18 19  1  0
  9  4  1  0
 15 10  1  0
 19 13  1  0
M  END
>  <inchikey>  (375) 
UWKMOLXBPRPLBM-UHFFFAOYSA-N

>  <energy_score>  (375) 
-31.596169

>  <subsites>  (375) 
1 - Active Site

>  <alias>  (375) 
C8903-P225

>  <tags>  (375) 
openbind_a71ev2a_c1_scaffolds,BulkDock Fragalysis export,openbind_a71ev2a_c1_knitwork_impure,fragmenstein_placed

>  <distance_score>  (375) 
0.868479

>  <placement_batch>  (375) 
openbind_a71ev2a_c1_knitwork_impure

>  <name>  (375) 
C8903-P225

>  <ref_mols>  (375) 
A3858a,A1778a

>  <smiles>  (375) 
O=C(CN1CCCCC1)c1ccc2c(c1)CCCN2

>  <HIPPO Compound ID>  (375) 
22847

>  <HIPPO Pose ID>  (375) 
410179

>  <ref_pdb>  (375) 
A0473a

$$$$
C4702-P304
     RDKit          3D

 11 11  0  0  0  0  0  0  0  0999 V2000
   10.5656   15.6452   19.7908 C   0  0  0  0  0  0  0  0  0  0  0  0
   10.5312   15.5567   21.1311 C   0  0  0  0  0  0  0  0  0  0  0  0
   11.7308   15.9177   21.9627 C   0  0  0  0  0  0  0  0  0  0  0  0
   11.9663   14.8658   23.0372 C   0  0  0  0  0  0  0  0  0  0  0  0
   10.6942   14.5854   23.8281 C   0  0  0  0  0  0  0  0  0  0  0  0
    9.6560   14.0909   22.9182 N   0  0  0  0  0  0  0  0  0  0  0  0
    8.4741   13.5298   23.6060 C   0  0  2  0  0  0  0  0  0  0  0  0
    7.9386   14.3503   24.7734 C   0  0  0  0  0  0  0  0  0  0  0  0
    8.8129   12.1094   24.0849 C   0  0  0  0  0  0  0  0  0  0  0  0
    8.3961   11.5990   25.1254 O   0  0  0  0  0  0  0  0  0  0  0  0
    9.3108   15.1178   21.9135 C   0  0  0  0  0  0  0  0  0  0  0  0
  1  2  2  0
  2  3  1  0
  3  4  1  0
  4  5  1  0
  5  6  1  0
  6  7  1  0
  7  8  1  1
  7  9  1  0
  9 10  2  0
  6 11  1  0
 11  2  1  0
M  END
>  <inchikey>  (376) 
QLSUFWUEOGJURT-UHFFFAOYSA-N

>  <energy_score>  (376) 
-20.010624

>  <subsites>  (376) 
1 - Active Site

>  <alias>  (376) 
C4702-P304

>  <tags>  (376) 
openbind_a71ev2a_c1_scaffolds,BulkDock Fragalysis export,openbind_a71ev2a_c1_knitwork_impure,fragmenstein_placed

>  <distance_score>  (376) 
0.983369

>  <placement_batch>  (376) 
openbind_a71ev2a_c1_knitwork_impure

>  <name>  (376) 
C4702-P304

>  <ref_mols>  (376) 
A4321a,A1775a

>  <smiles>  (376) 
C=C1CCCN([C@H](C)C=O)C1

>  <HIPPO Compound ID>  (376) 
9975

>  <HIPPO Pose ID>  (376) 
411026

>  <ref_pdb>  (376) 
A0473a

$$$$
C7527-P494
     RDKit          3D

 15 15  0  0  0  0  0  0  0  0999 V2000
    9.8466   10.8303   22.7687 F   0  0  0  0  0  0  0  0  0  0  0  0
    9.6455    9.7475   23.5436 C   0  0  0  0  0  0  0  0  0  0  0  0
   10.7719    9.4857   24.2206 F   0  0  0  0  0  0  0  0  0  0  0  0
    9.4586    8.7141   22.7114 F   0  0  0  0  0  0  0  0  0  0  0  0
    8.4653    9.9856   24.4776 C   0  0  0  0  0  0  0  0  0  0  0  0
    8.3880   11.2186   25.2183 O   0  0  0  0  0  0  0  0  0  0  0  0
    8.5172   12.3319   24.3293 C   0  0  0  0  0  0  0  0  0  0  0  0
    7.9534   13.6306   24.8952 C   0  0  0  0  0  0  0  0  0  0  0  0
    7.8821   14.7192   23.8955 N   0  0  0  0  0  0  0  0  0  0  0  0
    9.0519   14.6974   23.0228 N   0  0  0  0  0  0  0  0  0  0  0  0
   10.2267   15.2616   23.7104 C   0  0  0  0  0  0  0  0  0  0  0  0
   11.4577   15.0952   22.8249 C   0  0  0  0  0  0  0  0  0  0  0  0
   11.2733   15.8138   21.4966 C   0  0  0  0  0  0  0  0  0  0  0  0
    9.9767   15.3734   20.8272 C   0  0  0  0  0  0  0  0  0  0  0  0
    8.7839   15.4587   21.7842 C   0  0  0  0  0  0  0  0  0  0  0  0
  1  2  1  0
  2  3  1  0
  2  4  1  0
  2  5  1  0
  5  6  1  0
  6  7  1  0
  7  8  1  0
  8  9  1  0
  9 10  1  0
 10 11  1  0
 11 12  1  0
 12 13  1  0
 13 14  1  0
 14 15  1  0
 15 10  1  0
M  END
>  <inchikey>  (377) 
OOBPFSHUNCZUBY-UHFFFAOYSA-N

>  <energy_score>  (377) 
-19.699622

>  <subsites>  (377) 
1 - Active Site

>  <alias>  (377) 
C7527-P494

>  <tags>  (377) 
openbind_a71ev2a_c1_scaffolds,BulkDock Fragalysis export,openbind_a71ev2a_c1_knitwork_impure,fragmenstein_placed

>  <distance_score>  (377) 
0.820105

>  <placement_batch>  (377) 
openbind_a71ev2a_c1_knitwork_impure

>  <name>  (377) 
C7527-P494

>  <ref_mols>  (377) 
A0310a,A4874a

>  <smiles>  (377) 
FC(F)(F)COCCNN1CCCCC1

>  <HIPPO Compound ID>  (377) 
13863

>  <HIPPO Pose ID>  (377) 
411364

>  <ref_pdb>  (377) 
A0473a

$$$$
C4728-P455
     RDKit          3D

  9  9  0  0  0  0  0  0  0  0999 V2000
    7.9116   11.2610   25.6197 O   0  0  0  0  0  0  0  0  0  0  0  0
    7.6485   12.3577   25.1325 C   0  0  0  0  0  0  0  0  0  0  0  0
    8.6958   13.3555   24.7186 C   0  0  0  0  0  0  0  0  0  0  0  0
    8.5987   13.5806   23.2166 C   0  0  0  0  0  0  0  0  0  0  0  0
    9.4508   14.6709   22.7657 N   0  0  0  0  0  0  0  0  0  0  0  0
   10.8962   14.4207   22.9032 C   0  0  0  0  0  0  0  0  0  0  0  0
   11.5032   14.8892   21.6337 C   0  0  0  0  0  0  0  0  0  0  0  0
   10.5514   15.1914   20.7501 C   0  0  0  0  0  0  0  0  0  0  0  0
    9.2055   15.0278   21.3510 C   0  0  0  0  0  0  0  0  0  0  0  0
  1  2  2  0
  2  3  1  0
  3  4  1  0
  4  5  1  0
  5  6  1  0
  6  7  1  0
  7  8  2  0
  8  9  1  0
  9  5  1  0
M  END
>  <inchikey>  (378) 
IEDUUXRRBWHCQW-UHFFFAOYSA-N

>  <energy_score>  (378) 
-12.442904

>  <subsites>  (378) 
1 - Active Site

>  <alias>  (378) 
C4728-P455

>  <tags>  (378) 
openbind_a71ev2a_c1_scaffolds,BulkDock Fragalysis export,openbind_a71ev2a_c1_knitwork_impure,fragmenstein_placed

>  <distance_score>  (378) 
0.804885

>  <placement_batch>  (378) 
openbind_a71ev2a_c1_knitwork_impure

>  <name>  (378) 
C4728-P455

>  <ref_mols>  (378) 
A1775a,A4746a

>  <smiles>  (378) 
O=CCCN1CC=CC1

>  <HIPPO Compound ID>  (378) 
8416

>  <HIPPO Pose ID>  (378) 
411447

>  <ref_pdb>  (378) 
A0473a

$$$$
C18173-P405
     RDKit          3D

 13 13  0  0  0  0  0  0  0  0999 V2000
   11.8745   16.3218   21.6059 C   0  0  0  0  0  0  0  0  0  0  0  0
   11.0182   15.3216   20.8358 C   0  0  0  0  0  0  0  0  0  0  0  0
   10.9518   15.7103   19.3580 C   0  0  0  0  0  0  0  0  0  0  0  0
    9.6002   15.2143   21.4169 C   0  0  0  0  0  0  0  0  0  0  0  0
    9.5649   14.6246   22.8309 C   0  0  0  0  0  0  0  0  0  0  0  0
    8.1403   14.2351   23.1996 C   0  0  0  0  0  0  0  0  0  0  0  0
    8.0274   13.5411   24.5438 C   0  0  0  0  0  0  0  0  0  0  0  0
    7.7869   14.1833   25.5654 O   0  0  0  0  0  0  0  0  0  0  0  0
    8.1315   12.0895   24.5905 C   0  0  0  0  0  0  0  0  0  0  0  0
    7.4265   11.2103   25.4400 C   0  0  0  0  0  0  0  0  0  0  0  0
    7.7044    9.9255   25.2046 N   0  0  0  0  0  0  0  0  0  0  0  0
    8.6485    9.9760   24.2465 N   0  0  0  0  0  0  0  0  0  0  0  0
    8.9114   11.2498   23.8227 C   0  0  0  0  0  0  0  0  0  0  0  0
  1  2  1  0
  2  3  1  0
  2  4  1  0
  4  5  1  0
  5  6  1  0
  6  7  1  0
  7  8  2  0
  7  9  1  0
  9 10  1  0
 10 11  2  0
 11 12  1  0
 12 13  1  0
 13  9  2  0
M  END
>  <inchikey>  (379) 
LXVIPPHHTAYJIW-UHFFFAOYSA-N

>  <energy_score>  (379) 
-14.381305

>  <subsites>  (379) 
1 - Active Site

>  <alias>  (379) 
C18173-P405

>  <tags>  (379) 
openbind_a71ev2a_c1_scaffolds,BulkDock Fragalysis export,openbind_a71ev2a_c1_knitwork_impure,fragmenstein_placed

>  <distance_score>  (379) 
0.631523

>  <placement_batch>  (379) 
openbind_a71ev2a_c1_knitwork_impure

>  <name>  (379) 
C18173-P405

>  <ref_mols>  (379) 
A0556a,A4570a

>  <smiles>  (379) 
CC(C)CCCC(=O)c1cn[nH]c1

>  <HIPPO Compound ID>  (379) 
6131

>  <HIPPO Pose ID>  (379) 
411562

>  <ref_pdb>  (379) 
A0473a

$$$$
C18207-P405
     RDKit          3D

 14 14  0  0  0  0  0  0  0  0999 V2000
   11.7593   16.6156   21.7833 C   0  0  0  0  0  0  0  0  0  0  0  0
   10.8046   15.5737   21.1982 C   0  0  0  0  0  0  0  0  0  0  0  0
   10.8743   15.6657   19.6616 C   0  0  0  0  0  0  0  0  0  0  0  0
   11.2772   14.1977   21.6635 C   0  0  0  0  0  0  0  0  0  0  0  0
    9.3500   15.8574   21.6589 C   0  0  0  0  0  0  0  0  0  0  0  0
    9.0147   15.4437   23.1067 C   0  0  0  0  0  0  0  0  0  0  0  0
    8.0436   14.2658   23.1321 C   0  0  0  0  0  0  0  0  0  0  0  0
    7.9974   13.5369   24.4678 C   0  0  0  0  0  0  0  0  0  0  0  0
    7.6511   14.1131   25.4977 O   0  0  0  0  0  0  0  0  0  0  0  0
    8.3039   12.1113   24.4651 C   0  0  0  0  0  0  0  0  0  0  0  0
    9.1874   11.3974   23.6304 C   0  0  0  0  0  0  0  0  0  0  0  0
    9.1862   10.0878   23.8681 N   0  0  0  0  0  0  0  0  0  0  0  0
    8.3415    9.9549   24.8964 N   0  0  0  0  0  0  0  0  0  0  0  0
    7.7761   11.1345   25.2877 C   0  0  0  0  0  0  0  0  0  0  0  0
  1  2  1  0
  2  3  1  0
  2  4  1  0
  2  5  1  0
  5  6  1  0
  6  7  1  0
  7  8  1  0
  8  9  2  0
  8 10  1  0
 10 11  1  0
 11 12  2  0
 12 13  1  0
 13 14  1  0
 14 10  2  0
M  END
>  <inchikey>  (380) 
VURFZHBQCFSQNK-UHFFFAOYSA-N

>  <energy_score>  (380) 
-25.394633

>  <subsites>  (380) 
1 - Active Site

>  <alias>  (380) 
C18207-P405

>  <tags>  (380) 
openbind_a71ev2a_c1_scaffolds,BulkDock Fragalysis export,openbind_a71ev2a_c1_knitwork_impure,fragmenstein_placed

>  <distance_score>  (380) 
0.836988

>  <placement_batch>  (380) 
openbind_a71ev2a_c1_knitwork_impure

>  <name>  (380) 
C18207-P405

>  <ref_mols>  (380) 
A0556a,A4570a

>  <smiles>  (380) 
CC(C)(C)CCCC(=O)c1cn[nH]c1

>  <HIPPO Compound ID>  (380) 
1382

>  <HIPPO Pose ID>  (380) 
411566

>  <ref_pdb>  (380) 
A0473a

$$$$
C4791-P405
     RDKit          3D

  9 10  0  0  0  0  0  0  0  0999 V2000
    7.1210   13.4432   25.6195 C   0  0  0  0  0  0  0  0  0  0  0  0
    8.0864   12.8589   24.8861 C   0  0  0  0  0  0  0  0  0  0  0  0
    8.4477   11.4044   24.5711 C   0  0  0  0  0  0  0  0  0  0  0  0
    7.7621   10.2969   25.0871 C   0  0  0  0  0  0  0  0  0  0  0  0
    8.4072    9.2227   24.5307 C   0  0  0  0  0  0  0  0  0  0  0  0
    9.3854    9.7259   23.7280 N   0  0  0  0  0  0  0  0  0  0  0  0
    9.4411   11.0662   23.7533 N   0  0  0  0  0  0  0  0  0  0  0  0
    8.6904   14.1704   24.4471 C   0  0  0  0  0  0  0  0  0  0  0  0
    7.5887   14.8421   25.2898 C   0  0  0  0  0  0  0  0  0  0  0  0
  1  2  2  0
  2  3  1  0
  3  4  1  0
  4  5  2  0
  5  6  1  0
  6  7  1  0
  2  8  1  0
  8  9  1  0
  9  1  1  0
  7  3  2  0
M  END
>  <inchikey>  (381) 
OEFMQFVOHCBHLP-UHFFFAOYSA-N

>  <energy_score>  (381) 
-15.245957

>  <subsites>  (381) 
1 - Active Site

>  <alias>  (381) 
C4791-P405

>  <tags>  (381) 
openbind_a71ev2a_c1_scaffolds,BulkDock Fragalysis export,openbind_a71ev2a_c1_knitwork_impure,fragmenstein_placed

>  <distance_score>  (381) 
0.888162

>  <placement_batch>  (381) 
openbind_a71ev2a_c1_knitwork_impure

>  <name>  (381) 
C4791-P405

>  <ref_mols>  (381) 
A0556a,A4570a

>  <smiles>  (381) 
C1=C(c2cc[nH]n2)CC1

>  <HIPPO Compound ID>  (381) 
1401

>  <HIPPO Pose ID>  (381) 
411596

>  <ref_pdb>  (381) 
A0473a

$$$$
C15689-P103
     RDKit          3D

 14 16  0  0  0  0  0  0  0  0999 V2000
   14.0780   -6.2120   17.1155 C   0  0  0  0  0  0  0  0  0  0  0  0
   14.0325   -4.8286   17.2157 C   0  0  0  0  0  0  0  0  0  0  0  0
   15.1520   -4.1485   17.6746 C   0  0  0  0  0  0  0  0  0  0  0  0
   16.2914   -4.8771   18.0148 C   0  0  0  0  0  0  0  0  0  0  0  0
   17.3510   -4.2021   18.7535 C   0  0  0  0  0  0  0  0  0  0  0  0
   18.1752   -4.8130   19.6971 C   0  0  0  0  0  0  0  0  0  0  0  0
   18.6418   -3.7743   20.4379 N   0  0  0  0  0  0  0  0  0  0  0  0
   19.2741   -3.7187   21.6350 N   0  0  0  0  0  0  0  0  0  0  0  0
   19.3390   -2.4506   21.9324 C   0  0  0  0  0  0  0  0  0  0  0  0
   18.6663   -1.2763   20.7792 S   0  0  0  0  0  0  0  0  0  0  0  0
   18.2227   -2.6322   19.8419 C   0  0  0  0  0  0  0  0  0  0  0  0
   17.4532   -2.8206   18.8145 N   0  0  0  0  0  0  0  0  0  0  0  0
   16.3610   -6.2293   17.9160 N   0  0  0  0  0  0  0  0  0  0  0  0
   15.2514   -6.8589   17.4693 C   0  0  0  0  0  0  0  0  0  0  0  0
  1  2  2  0
  2  3  1  0
  3  4  2  0
  4  5  1  0
  5  6  2  0
  6  7  1  0
  7  8  1  0
  8  9  2  0
  9 10  1  0
 10 11  1  0
 11 12  2  0
  4 13  1  0
 13 14  2  0
 14  1  1  0
 12  5  1  0
 11  7  1  0
M  END
>  <inchikey>  (382) 
HEZOJSXHYOLCRB-UHFFFAOYSA-N

>  <energy_score>  (382) 
-71.386529

>  <subsites>  (382) 
2 - A3977/A/202/1

>  <alias>  (382) 
C15689-P103

>  <tags>  (382) 
openbind_a71ev2a_c1_scaffolds,BulkDock Fragalysis export,openbind_a71ev2a_c1_knitwork_impure,fragmenstein_placed

>  <distance_score>  (382) 
0.814304

>  <placement_batch>  (382) 
openbind_a71ev2a_c1_knitwork_impure

>  <name>  (382) 
C15689-P103

>  <ref_mols>  (382) 
A0202a,A1105b

>  <smiles>  (382) 
c1ccc(-c2cn3ncsc3n2)nc1

>  <HIPPO Compound ID>  (382) 
3788

>  <HIPPO Pose ID>  (382) 
411692

>  <ref_pdb>  (382) 
A0473a

$$$$
C15690-P103
     RDKit          3D

 14 16  0  0  0  0  0  0  0  0999 V2000
   13.9888   -4.8281   17.2981 C   0  0  0  0  0  0  0  0  0  0  0  0
   14.0821   -6.1867   17.0548 C   0  0  0  0  0  0  0  0  0  0  0  0
   15.2214   -6.9035   17.1883 N   0  0  0  0  0  0  0  0  0  0  0  0
   16.3047   -6.2314   17.6553 C   0  0  0  0  0  0  0  0  0  0  0  0
   16.3032   -4.8803   17.9816 C   0  0  0  0  0  0  0  0  0  0  0  0
   17.3765   -4.2316   18.7089 C   0  0  0  0  0  0  0  0  0  0  0  0
   18.1694   -4.8377   19.6808 C   0  0  0  0  0  0  0  0  0  0  0  0
   18.6354   -3.7887   20.4146 N   0  0  0  0  0  0  0  0  0  0  0  0
   19.2356   -3.7228   21.6268 N   0  0  0  0  0  0  0  0  0  0  0  0
   19.3029   -2.4509   21.9091 C   0  0  0  0  0  0  0  0  0  0  0  0
   18.6712   -1.2878   20.7211 S   0  0  0  0  0  0  0  0  0  0  0  0
   18.2437   -2.6532   19.7900 C   0  0  0  0  0  0  0  0  0  0  0  0
   17.4988   -2.8547   18.7468 N   0  0  0  0  0  0  0  0  0  0  0  0
   15.1177   -4.1685   17.7633 C   0  0  0  0  0  0  0  0  0  0  0  0
  1  2  2  0
  2  3  1  0
  3  4  2  0
  4  5  1  0
  5  6  1  0
  6  7  2  0
  7  8  1  0
  8  9  1  0
  9 10  2  0
 10 11  1  0
 11 12  1  0
 12 13  2  0
  5 14  2  0
 14  1  1  0
 13  6  1  0
 12  8  1  0
M  END
>  <inchikey>  (383) 
NFHSLKKDIQNRKX-UHFFFAOYSA-N

>  <energy_score>  (383) 
-41.723144

>  <subsites>  (383) 
2 - A3977/A/202/1

>  <alias>  (383) 
C15690-P103

>  <tags>  (383) 
openbind_a71ev2a_c1_scaffolds,BulkDock Fragalysis export,openbind_a71ev2a_c1_knitwork_impure,fragmenstein_placed

>  <distance_score>  (383) 
0.782428

>  <placement_batch>  (383) 
openbind_a71ev2a_c1_knitwork_impure

>  <name>  (383) 
C15690-P103

>  <ref_mols>  (383) 
A0202a,A1105b

>  <smiles>  (383) 
c1cncc(-c2cn3ncsc3n2)c1

>  <HIPPO Compound ID>  (383) 
6658

>  <HIPPO Pose ID>  (383) 
411694

>  <ref_pdb>  (383) 
A0473a

$$$$
C7620-P274
     RDKit          3D

 15 16  0  0  0  0  0  0  0  0999 V2000
   11.8095   14.3773   23.5226 C   0  0  0  0  0  0  0  0  0  0  0  0
   10.5762   15.2521   23.4017 C   0  0  0  0  0  0  0  0  0  0  0  0
    9.5146   14.6233   22.5081 C   0  0  0  0  0  0  0  0  0  0  0  0
    8.2441   13.7376   23.3905 S   0  0  0  0  0  0  0  0  0  0  0  0
    7.3971   13.0791   22.4184 O   0  0  0  0  0  0  0  0  0  0  0  0
    7.6945   14.6316   24.3871 O   0  0  0  0  0  0  0  0  0  0  0  0
    9.1277   12.5654   24.2398 N   0  0  0  0  0  0  0  0  0  0  0  0
    8.5066   11.2049   24.3871 C   0  0  0  0  0  0  0  0  0  0  0  0
    7.5325   11.0736   25.5495 C   0  0  1  0  0  0  0  0  0  0  0  0
    6.5432   12.1917   25.8068 C   0  0  0  0  0  0  0  0  0  0  0  0
    5.4708   11.5599   26.6797 C   0  0  0  0  0  0  0  0  0  0  0  0
    5.7963   10.0777   26.7058 C   0  0  0  0  0  0  0  0  0  0  0  0
    6.7316    9.8460   25.6066 N   0  0  0  0  0  0  0  0  0  0  0  0
    8.5563   10.2630   23.2002 C   0  0  0  0  0  0  0  0  0  0  0  0
    9.4437    9.9865   24.2942 C   0  0  0  0  0  0  0  0  0  0  0  0
  1  2  1  0
  2  3  1  0
  3  4  1  0
  4  5  2  0
  4  6  2  0
  4  7  1  0
  7  8  1  0
  9  8  1  6
  9 10  1  0
 10 11  1  0
 11 12  1  0
 12 13  1  0
  8 14  1  0
 14 15  1  0
 15  8  1  0
 13  9  1  0
M  END
>  <inchikey>  (384) 
CMUPJBQGBXLKHY-UHFFFAOYSA-N

>  <energy_score>  (384) 
-55.838919

>  <subsites>  (384) 
1 - Active Site

>  <alias>  (384) 
C7620-P274

>  <tags>  (384) 
openbind_a71ev2a_c1_scaffolds,BulkDock Fragalysis export,openbind_a71ev2a_c1_knitwork_impure,fragmenstein_placed

>  <distance_score>  (384) 
0.977192

>  <placement_batch>  (384) 
openbind_a71ev2a_c1_knitwork_impure

>  <name>  (384) 
C7620-P274

>  <ref_mols>  (384) 
A4031a,A0719a

>  <smiles>  (384) 
CCCS(=O)(=O)NC1([C@H]2CCCN2)CC1

>  <HIPPO Compound ID>  (384) 
10400

>  <HIPPO Pose ID>  (384) 
411994

>  <ref_pdb>  (384) 
A0473a

$$$$
C7674-P274
     RDKit          3D

 13 14  0  0  0  0  0  0  0  0999 V2000
    5.6969   15.8268   21.9322 N   0  0  0  0  0  0  0  0  0  0  0  0
    6.8679   14.9013   22.6959 S   0  0  0  0  0  0  0  0  0  0  0  0
    8.0840   15.6714   22.5935 O   0  0  0  0  0  0  0  0  0  0  0  0
    6.7535   13.5770   22.1211 O   0  0  0  0  0  0  0  0  0  0  0  0
    6.2552   14.9453   24.3811 C   0  0  0  0  0  0  0  0  0  0  0  0
    7.1531   14.2671   25.4173 C   0  0  0  0  0  0  0  0  0  0  0  0
    7.1682   12.7346   25.2604 C   0  0  0  0  0  0  0  0  0  0  0  0
    8.4534   12.0599   25.0394 N   0  0  0  0  0  0  0  0  0  0  0  0
    9.3801   12.9288   24.2933 C   0  0  0  0  0  0  0  0  0  0  0  0
   10.2479   12.0101   23.4862 C   0  0  0  0  0  0  0  0  0  0  0  0
    9.3912   10.8273   23.1900 C   0  0  1  0  0  0  0  0  0  0  0  0
    9.2233    9.6613   24.0854 C   0  0  0  0  0  0  0  0  0  0  0  0
    8.2856   10.8246   24.2089 C   0  0  1  0  0  0  0  0  0  0  0  0
  1  2  1  0
  2  3  2  0
  2  4  2  0
  2  5  1  0
  5  6  1  0
  6  7  1  0
  7  8  1  0
  8  9  1  0
  9 10  1  0
 11 10  1  1
 11 12  1  0
 13 12  1  1
 13  8  1  0
 13 11  1  0
M  END
>  <inchikey>  (385) 
BNTNXENXQWHSKP-UHFFFAOYSA-N

>  <energy_score>  (385) 
-72.486049

>  <subsites>  (385) 
1 - Active Site

>  <alias>  (385) 
C7674-P274

>  <tags>  (385) 
openbind_a71ev2a_c1_scaffolds,BulkDock Fragalysis export,openbind_a71ev2a_c1_knitwork_impure,fragmenstein_placed

>  <distance_score>  (385) 
0.897404

>  <placement_batch>  (385) 
openbind_a71ev2a_c1_knitwork_impure

>  <name>  (385) 
C7674-P274

>  <ref_mols>  (385) 
A4031a,A0719a

>  <smiles>  (385) 
NS(=O)(=O)CCCN1CC[C@H]2C[C@H]21

>  <HIPPO Compound ID>  (385) 
2073

>  <HIPPO Pose ID>  (385) 
412024

>  <ref_pdb>  (385) 
A0473a

$$$$
C1266-P536
     RDKit          3D

 16 18  0  0  0  0  0  0  0  0999 V2000
    9.1436   15.0476   21.7601 C   0  0  0  0  0  0  0  0  0  0  0  0
    9.0805   14.7913   23.0848 C   0  0  0  0  0  0  0  0  0  0  0  0
    7.8414   14.1756   23.7106 C   0  0  2  0  0  0  0  0  0  0  0  0
    7.3176   15.0486   24.7749 N   0  0  0  0  0  0  0  0  0  0  0  0
    6.0307   14.5159   25.2322 C   0  0  0  0  0  0  0  0  0  0  0  0
    6.1680   13.1460   25.9008 C   0  0  0  0  0  0  0  0  0  0  0  0
    7.1122   12.2224   25.1715 C   0  0  0  0  0  0  0  0  0  0  0  0
    7.1183   10.8566   25.4860 C   0  0  0  0  0  0  0  0  0  0  0  0
    7.9903    9.9937   24.8301 C   0  0  0  0  0  0  0  0  0  0  0  0
    8.8985   10.4900   23.9020 C   0  0  0  0  0  0  0  0  0  0  0  0
    8.9137   11.8494   23.5972 C   0  0  0  0  0  0  0  0  0  0  0  0
    8.0040   12.7318   24.2006 C   0  0  0  0  0  0  0  0  0  0  0  0
   10.2639   15.0738   23.9778 C   0  0  0  0  0  0  0  0  0  0  0  0
   11.5769   15.1486   23.1997 C   0  0  0  0  0  0  0  0  0  0  0  0
   11.4476   16.0740   21.9967 C   0  0  0  0  0  0  0  0  0  0  0  0
   10.3490   15.5974   21.0499 C   0  0  0  0  0  0  0  0  0  0  0  0
  1  2  2  0
  3  2  1  1
  3  4  1  0
  4  5  1  0
  5  6  1  0
  6  7  1  0
  7  8  2  0
  8  9  1  0
  9 10  2  0
 10 11  1  0
 11 12  2  0
  2 13  1  0
 13 14  1  0
 14 15  1  0
 15 16  1  0
 16  1  1  0
 12  3  1  0
 12  7  1  0
M  END
>  <inchikey>  (386) 
QUJOMQBGHHSWRI-UHFFFAOYSA-N

>  <energy_score>  (386) 
-37.314568

>  <subsites>  (386) 
1 - Active Site

>  <alias>  (386) 
C1266-P536

>  <tags>  (386) 
openbind_a71ev2a_c1_scaffolds,BulkDock Fragalysis export,openbind_a71ev2a_c1_knitwork_impure,fragmenstein_placed

>  <distance_score>  (386) 
0.899317

>  <placement_batch>  (386) 
openbind_a71ev2a_c1_knitwork_impure

>  <name>  (386) 
C1266-P536

>  <ref_mols>  (386) 
A4943b,A2293a

>  <smiles>  (386) 
C1=C([C@@H]2NCCc3ccccc32)CCCC1

>  <HIPPO Compound ID>  (386) 
28573

>  <HIPPO Pose ID>  (386) 
412053

>  <ref_pdb>  (386) 
A0473a

$$$$
C1281-P536
     RDKit          3D

 16 18  0  0  0  0  0  0  0  0999 V2000
   11.5474   15.7795   21.9812 C   0  0  0  0  0  0  0  0  0  0  0  0
   11.5571   15.4337   23.2754 C   0  0  0  0  0  0  0  0  0  0  0  0
   10.3434   14.9872   24.0310 C   0  0  0  0  0  0  0  0  0  0  0  0
    9.0325   15.0875   23.2307 C   0  0  2  0  0  0  0  0  0  0  0  0
    7.8530   14.2686   23.8411 C   0  0  2  0  0  0  0  0  0  0  0  0
    7.3490   15.0317   25.0081 N   0  0  0  0  0  0  0  0  0  0  0  0
    6.0488   14.4933   25.4068 C   0  0  0  0  0  0  0  0  0  0  0  0
    6.1604   13.0685   25.9413 C   0  0  0  0  0  0  0  0  0  0  0  0
    7.1316   12.2131   25.1632 C   0  0  0  0  0  0  0  0  0  0  0  0
    7.1584   10.8337   25.4253 C   0  0  0  0  0  0  0  0  0  0  0  0
    8.0515   10.0127   24.7510 C   0  0  0  0  0  0  0  0  0  0  0  0
    8.9537   10.5674   23.8535 C   0  0  0  0  0  0  0  0  0  0  0  0
    8.9493   11.9417   23.6045 C   0  0  0  0  0  0  0  0  0  0  0  0
    8.0245   12.7912   24.2247 C   0  0  0  0  0  0  0  0  0  0  0  0
    9.2267   14.8376   21.7212 C   0  0  0  0  0  0  0  0  0  0  0  0
   10.3220   15.7225   21.1227 C   0  0  0  0  0  0  0  0  0  0  0  0
  1  2  2  0
  2  3  1  0
  4  3  1  1
  4  5  1  0
  5  6  1  1
  6  7  1  0
  7  8  1  0
  8  9  1  0
  9 10  2  0
 10 11  1  0
 11 12  2  0
 12 13  1  0
 13 14  2  0
  4 15  1  0
 15 16  1  0
 16  1  1  0
 14  5  1  0
 14  9  1  0
M  END
>  <inchikey>  (387) 
GFYOTNKFYIETKD-UHFFFAOYSA-N

>  <energy_score>  (387) 
-20.622673

>  <subsites>  (387) 
1 - Active Site

>  <alias>  (387) 
C1281-P536

>  <tags>  (387) 
openbind_a71ev2a_c1_scaffolds,BulkDock Fragalysis export,openbind_a71ev2a_c1_knitwork_impure,fragmenstein_placed

>  <distance_score>  (387) 
0.997549

>  <placement_batch>  (387) 
openbind_a71ev2a_c1_knitwork_impure

>  <name>  (387) 
C1281-P536

>  <ref_mols>  (387) 
A4943b,A2293a

>  <smiles>  (387) 
C1=CC[C@H]([C@@H]2NCCc3ccccc32)CC1

>  <HIPPO Compound ID>  (387) 
1281

>  <HIPPO Pose ID>  (387) 
412056

>  <ref_pdb>  (387) 
A0473a

$$$$
C1627-P182
     RDKit          3D

 16 16  0  0  0  0  0  0  0  0999 V2000
    7.1182    9.5474   25.1346 C   0  0  0  0  0  0  0  0  0  0  0  0
    6.9722   10.7314   26.0025 C   0  0  0  0  0  0  0  0  0  0  0  0
    7.6464   11.8508   25.7391 C   0  0  0  0  0  0  0  0  0  0  0  0
    8.5881   11.9185   24.5737 C   0  0  0  0  0  0  0  0  0  0  0  0
    9.6926   12.9718   24.5916 C   0  0  2  0  0  0  0  0  0  0  0  0
    9.1796   14.2795   25.1414 C   0  0  0  0  0  0  0  0  0  0  0  0
    7.9507   14.8026   24.4232 C   0  0  0  0  0  0  0  0  0  0  0  0
   10.3196   12.8937   23.1867 C   0  0  0  0  0  0  0  0  0  0  0  0
   10.1465   11.9365   22.5506 O   0  0  0  0  0  0  0  0  0  0  0  0
   11.1728   14.1334   22.9029 N   0  0  0  0  0  0  0  0  0  0  0  0
   11.9189   14.5028   21.7374 C   0  0  0  0  0  0  0  0  0  0  0  0
   10.9818   15.1586   20.8007 C   0  0  0  0  0  0  0  0  0  0  0  0
   10.8962   15.0432   19.4358 C   0  0  0  0  0  0  0  0  0  0  0  0
    9.9242   15.8907   18.9923 O   0  0  0  0  0  0  0  0  0  0  0  0
    9.4653   16.4806   20.1339 C   0  0  0  0  0  0  0  0  0  0  0  0
   10.0344   16.0564   21.2350 N   0  0  0  0  0  0  0  0  0  0  0  0
  1  2  1  0
  2  3  2  3
  3  4  1  0
  5  4  1  6
  5  6  1  0
  6  7  1  0
  5  8  1  0
  8  9  2  0
  8 10  1  0
 10 11  1  0
 11 12  1  0
 12 13  2  0
 13 14  1  0
 14 15  1  0
 15 16  2  0
 16 12  1  0
M  END
>  <inchikey>  (388) 
LIVRICROYPTWRS-UHFFFAOYSA-N

>  <energy_score>  (388) 
-5.672686

>  <subsites>  (388) 
1 - Active Site

>  <alias>  (388) 
C1627-P182

>  <tags>  (388) 
openbind_a71ev2a_c1_scaffolds,BulkDock Fragalysis export,openbind_a71ev2a_c1_knitwork_impure,fragmenstein_placed

>  <distance_score>  (388) 
0.949738

>  <placement_batch>  (388) 
openbind_a71ev2a_c1_knitwork_impure

>  <name>  (388) 
C1627-P182

>  <ref_mols>  (388) 
A1778a,A3435a

>  <smiles>  (388) 
CC=CC[C@H](CC)C(=O)NCc1cocn1

>  <HIPPO Compound ID>  (388) 
15352

>  <HIPPO Pose ID>  (388) 
412208

>  <ref_pdb>  (388) 
A0473a

$$$$
C24493-P77
     RDKit          3D

 14 14  0  0  0  0  0  0  0  0999 V2000
    5.3279   15.0040   22.7621 O   0  0  0  0  0  0  0  0  0  0  0  0
    6.7288   14.6459   22.8094 S   0  0  0  0  0  0  0  0  0  0  0  0
    7.1985   13.3699   22.3091 O   0  0  0  0  0  0  0  0  0  0  0  0
    7.3150   14.9602   24.4333 C   0  0  0  0  0  0  0  0  0  0  0  0
    7.2228   13.7321   25.2530 C   0  0  0  0  0  0  0  0  0  0  0  0
    7.5957   14.0329   26.5296 F   0  0  0  0  0  0  0  0  0  0  0  0
    8.0462   12.7421   24.8507 F   0  0  0  0  0  0  0  0  0  0  0  0
    5.9764   13.2324   25.3430 F   0  0  0  0  0  0  0  0  0  0  0  0
    7.5270   15.8562   21.9823 N   0  0  0  0  0  0  0  0  0  0  0  0
    8.7261   15.5554   21.1759 C   0  0  0  0  0  0  0  0  0  0  0  0
   10.0242   15.3276   21.9366 C   0  0  2  0  0  0  0  0  0  0  0  0
   11.2319   14.7552   21.1788 C   0  0  0  0  0  0  0  0  0  0  0  0
   11.4851   13.9726   22.4771 C   0  0  0  0  0  0  0  0  0  0  0  0
   10.0472   14.1184   22.8082 N   0  0  0  0  0  0  0  0  0  0  0  0
  1  2  2  0
  2  3  2  0
  2  4  1  0
  4  5  1  0
  5  6  1  0
  5  7  1  0
  5  8  1  0
  2  9  1  0
  9 10  1  0
 11 10  1  6
 11 12  1  0
 12 13  1  0
 13 14  1  0
 14 11  1  0
M  END
>  <inchikey>  (389) 
ZUVLOAOUUWQFOU-UHFFFAOYSA-N

>  <energy_score>  (389) 
-32.190197

>  <subsites>  (389) 
1 - Active Site

>  <alias>  (389) 
C24493-P77

>  <tags>  (389) 
openbind_a71ev2a_c1_scaffolds,BulkDock Fragalysis export,openbind_a71ev2a_c1_knitwork_impure,fragmenstein_placed

>  <distance_score>  (389) 
0.961394

>  <placement_batch>  (389) 
openbind_a71ev2a_c1_knitwork_impure

>  <name>  (389) 
C24493-P77

>  <ref_mols>  (389) 
A0719a,A4715a

>  <smiles>  (389) 
O=S(=O)(CC(F)(F)F)NC[C@@H]1CCN1

>  <HIPPO Compound ID>  (389) 
6100

>  <HIPPO Pose ID>  (389) 
412271

>  <ref_pdb>  (389) 
A0473a

$$$$
C4755-P612
     RDKit          3D

 10 11  0  0  0  0  0  0  0  0999 V2000
    6.8808   10.2939   25.3058 C   0  0  0  0  0  0  0  0  0  0  0  0
    7.5842    9.2595   24.8548 N   0  0  0  0  0  0  0  0  0  0  0  0
    8.5321    9.8216   24.0861 N   0  0  0  0  0  0  0  0  0  0  0  0
    8.4542   11.1872   24.0650 C   0  0  0  0  0  0  0  0  0  0  0  0
    7.3725   11.5422   24.8547 C   0  0  0  0  0  0  0  0  0  0  0  0
    6.7830   12.8878   25.1166 C   0  0  2  0  0  0  0  0  0  0  0  0
    7.8400   13.9029   25.1844 N   0  0  0  0  0  0  0  0  0  0  0  0
    7.2342   15.0694   25.8383 C   0  0  0  0  0  0  0  0  0  0  0  0
    6.5506   14.6038   27.1168 C   0  0  0  0  0  0  0  0  0  0  0  0
    5.8895   12.9743   26.7003 S   0  0  0  0  0  0  0  0  0  0  0  0
  1  2  2  0
  2  3  1  0
  3  4  1  0
  4  5  2  0
  6  5  1  1
  6  7  1  0
  7  8  1  0
  8  9  1  0
  9 10  1  0
  5  1  1  0
 10  6  1  0
M  END
>  <inchikey>  (390) 
MSOXWHJHAGZIKH-UHFFFAOYSA-N

>  <energy_score>  (390) 
-15.549275

>  <subsites>  (390) 
1 - Active Site

>  <alias>  (390) 
C4755-P612

>  <tags>  (390) 
openbind_a71ev2a_c1_scaffolds,BulkDock Fragalysis export,openbind_a71ev2a_c1_knitwork_impure,fragmenstein_placed

>  <distance_score>  (390) 
0.770049

>  <placement_batch>  (390) 
openbind_a71ev2a_c1_knitwork_impure

>  <name>  (390) 
C4755-P612

>  <ref_mols>  (390) 
A5394a,A0556a

>  <smiles>  (390) 
c1n[nH]cc1[C@@H]1NCCS1

>  <HIPPO Compound ID>  (390) 
4756

>  <HIPPO Pose ID>  (390) 
413408

>  <ref_pdb>  (390) 
A0473a

$$$$
C4669-P364
     RDKit          3D

  9  9  0  0  0  0  0  0  0  0999 V2000
    9.2740   10.7367   24.1957 C   0  0  0  0  0  0  0  0  0  0  0  0
    8.3227   11.5972   25.0012 C   0  0  0  0  0  0  0  0  0  0  0  0
    8.5770   13.0655   24.7219 C   0  0  0  0  0  0  0  0  0  0  0  0
    9.5184   13.6347   25.2837 O   0  0  0  0  0  0  0  0  0  0  0  0
    7.6772   13.7368   23.6636 C   0  0  2  0  0  0  0  0  0  0  0  0
    8.0146   15.1644   23.4204 C   0  0  0  0  0  0  0  0  0  0  0  0
    6.9489   15.9422   23.6096 C   0  0  0  0  0  0  0  0  0  0  0  0
    5.7781   15.1318   24.0186 C   0  0  0  0  0  0  0  0  0  0  0  0
    6.2710   13.7444   24.1438 N   0  0  0  0  0  0  0  0  0  0  0  0
  1  2  1  0
  2  3  1  0
  3  4  2  0
  5  3  1  1
  5  6  1  0
  6  7  2  0
  7  8  1  0
  8  9  1  0
  9  5  1  0
M  END
>  <inchikey>  (391) 
GHOYRUSNPCRDIR-UHFFFAOYSA-N

>  <energy_score>  (391) 
-16.580241

>  <subsites>  (391) 
1 - Active Site

>  <alias>  (391) 
C4669-P364

>  <tags>  (391) 
openbind_a71ev2a_c1_scaffolds,BulkDock Fragalysis export,openbind_a71ev2a_c1_knitwork_impure,fragmenstein_placed

>  <distance_score>  (391) 
0.970757

>  <placement_batch>  (391) 
openbind_a71ev2a_c1_knitwork_impure

>  <name>  (391) 
C4669-P364

>  <ref_mols>  (391) 
A1775a,A4445b,A0875a

>  <smiles>  (391) 
CCC(=O)[C@@H]1C=CCN1

>  <HIPPO Compound ID>  (391) 
82527

>  <HIPPO Pose ID>  (391) 
413701

>  <ref_pdb>  (391) 
A0473a

$$$$
C1386-P338
     RDKit          3D

 16 16  0  0  0  0  0  0  0  0999 V2000
   10.7335   15.5871   19.3667 C   0  0  0  0  0  0  0  0  0  0  0  0
   10.5359   15.2084   20.8327 C   0  0  0  0  0  0  0  0  0  0  0  0
   11.5926   15.8925   21.7022 C   0  0  0  0  0  0  0  0  0  0  0  0
    9.1149   15.5659   21.2813 C   0  0  0  0  0  0  0  0  0  0  0  0
    8.8119   15.0120   22.5769 N   0  0  0  0  0  0  0  0  0  0  0  0
    7.9248   13.8053   22.9724 C   0  0  0  0  0  0  0  0  0  0  0  0
    7.2417   13.1214   22.3173 O   0  0  0  0  0  0  0  0  0  0  0  0
    8.0916   13.5879   24.4746 C   0  0  0  0  0  0  0  0  0  0  0  0
    6.7382   13.6802   25.2048 C   0  0  1  0  0  0  0  0  0  0  0  0
    6.5805   12.4726   26.1388 C   0  0  0  0  0  0  0  0  0  0  0  0
    6.4938   15.0287   25.9487 C   0  0  1  0  0  0  0  0  0  0  0  0
    7.4875   15.3216   27.0891 C   0  0  0  0  0  0  0  0  0  0  0  0
    7.1773   16.6663   27.7471 C   0  0  0  0  0  0  0  0  0  0  0  0
    7.0768   17.7863   26.7169 C   0  0  0  0  0  0  0  0  0  0  0  0
    6.0996   17.4657   25.6848 N   0  0  0  0  0  0  0  0  0  0  0  0
    6.4348   16.2282   24.9782 C   0  0  0  0  0  0  0  0  0  0  0  0
  1  2  1  0
  2  3  1  0
  2  4  1  0
  4  5  1  0
  5  6  1  0
  6  7  2  0
  6  8  1  0
  8  9  1  0
  9 10  1  1
  9 11  1  0
 11 12  1  1
 12 13  1  0
 13 14  1  0
 14 15  1  0
 15 16  1  0
 16 11  1  0
M  END
>  <inchikey>  (392) 
USRDLWXXPHNKBB-UHFFFAOYSA-N

>  <energy_score>  (392) 
-31.260542

>  <subsites>  (392) 
1 - Active Site

>  <alias>  (392) 
C1386-P338

>  <tags>  (392) 
openbind_a71ev2a_c1_scaffolds,BulkDock Fragalysis export,openbind_a71ev2a_c1_knitwork_impure,fragmenstein_placed

>  <distance_score>  (392) 
0.929307

>  <placement_batch>  (392) 
openbind_a71ev2a_c1_knitwork_impure

>  <name>  (392) 
C1386-P338

>  <ref_mols>  (392) 
A4237a,A1778a

>  <smiles>  (392) 
CC(C)CNC(=O)C[C@@H](C)[C@H]1CCCNC1

>  <HIPPO Compound ID>  (392) 
15476

>  <HIPPO Pose ID>  (392) 
414172

>  <ref_pdb>  (392) 
A0473a

$$$$
C38601-P122
     RDKit          3D

 11 11  0  0  0  0  0  0  0  0999 V2000
    8.9518   13.1605   25.0834 O   0  0  0  0  0  0  0  0  0  0  0  0
    9.5211   12.1158   24.7744 C   0  0  0  0  0  0  0  0  0  0  0  0
   10.8555   12.0195   24.0261 C   0  0  0  0  0  0  0  0  0  0  0  0
   10.8416   10.8356   23.0639 C   0  0  1  0  0  0  0  0  0  0  0  0
   12.0232   10.5586   22.1617 C   0  0  0  0  0  0  0  0  0  0  0  0
   12.1614    9.4175   21.7038 O   0  0  0  0  0  0  0  0  0  0  0  0
   12.9011   11.7166   21.7479 C   0  0  0  0  0  0  0  0  0  0  0  0
   14.0794   11.1422   20.5298 Cl  0  0  0  0  0  0  0  0  0  0  0  0
   10.4648    9.5505   23.7800 C   0  0  0  0  0  0  0  0  0  0  0  0
    9.1051    9.7521   24.3748 C   0  0  0  0  0  0  0  0  0  0  0  0
    8.9765   10.9295   25.1851 N   0  0  0  0  0  0  0  0  0  0  0  0
  1  2  2  0
  2  3  1  0
  3  4  1  0
  4  5  1  1
  5  6  2  0
  5  7  1  0
  7  8  1  0
  4  9  1  0
  9 10  1  0
 10 11  1  0
 11  2  1  0
M  END
>  <inchikey>  (393) 
ITCVEUCTWLRDPC-UHFFFAOYSA-N

>  <energy_score>  (393) 
-14.219329

>  <subsites>  (393) 
1 - Active Site

>  <alias>  (393) 
C38601-P122

>  <tags>  (393) 
openbind_a71ev2a_c1_scaffolds,BulkDock Fragalysis export,openbind_a71ev2a_c1_knitwork_impure,fragmenstein_placed

>  <distance_score>  (393) 
0.793107

>  <placement_batch>  (393) 
openbind_a71ev2a_c1_knitwork_impure

>  <name>  (393) 
C38601-P122

>  <ref_mols>  (393) 
A4029a,A1775a

>  <smiles>  (393) 
O=C1C[C@@H](C(=O)CCl)CCN1

>  <HIPPO Compound ID>  (393) 
10874

>  <HIPPO Pose ID>  (393) 
415160

>  <ref_pdb>  (393) 
A0473a

$$$$
C38616-P273
     RDKit          3D

 13 13  0  0  0  0  0  0  0  0999 V2000
    6.8022   11.3687   26.2016 O   0  0  0  0  0  0  0  0  0  0  0  0
    7.5551   11.4597   25.2411 C   0  0  0  0  0  0  0  0  0  0  0  0
    7.6447   12.6852   24.3892 C   0  0  0  0  0  0  0  0  0  0  0  0
    9.0897   13.0280   24.0595 C   0  0  2  0  0  0  0  0  0  0  0  0
    9.1240   14.2573   23.1466 C   0  0  1  0  0  0  0  0  0  0  0  0
    8.4108   15.2490   23.7629 F   0  0  0  0  0  0  0  0  0  0  0  0
   10.5207   14.7714   22.8297 C   0  0  0  0  0  0  0  0  0  0  0  0
   10.4550   15.7859   21.9439 F   0  0  0  0  0  0  0  0  0  0  0  0
   11.1582   15.2015   23.9416 F   0  0  0  0  0  0  0  0  0  0  0  0
   11.3036   13.8203   22.2765 F   0  0  0  0  0  0  0  0  0  0  0  0
    9.8415   11.8361   23.4590 C   0  0  0  0  0  0  0  0  0  0  0  0
    9.2571   10.4585   23.7480 C   0  0  0  0  0  0  0  0  0  0  0  0
    8.3619   10.4284   24.8713 N   0  0  0  0  0  0  0  0  0  0  0  0
  1  2  2  0
  2  3  1  0
  4  3  1  6
  4  5  1  0
  5  6  1  1
  5  7  1  0
  7  8  1  0
  7  9  1  0
  7 10  1  0
  4 11  1  0
 11 12  1  0
 12 13  1  0
 13  2  1  0
M  END
>  <inchikey>  (394) 
BIBIWDDCLSQUGA-UHFFFAOYSA-N

>  <energy_score>  (394) 
-27.499823

>  <subsites>  (394) 
1 - Active Site

>  <alias>  (394) 
C38616-P273

>  <tags>  (394) 
openbind_a71ev2a_c1_scaffolds,BulkDock Fragalysis export,openbind_a71ev2a_c1_knitwork_impure,fragmenstein_placed

>  <distance_score>  (394) 
0.958752

>  <placement_batch>  (394) 
openbind_a71ev2a_c1_knitwork_impure

>  <name>  (394) 
C38616-P273

>  <ref_mols>  (394) 
A4029a,A1775a

>  <smiles>  (394) 
O=C1C[C@H]([C@@H](F)C(F)(F)F)CCN1

>  <HIPPO Compound ID>  (394) 
5997

>  <HIPPO Pose ID>  (394) 
415178

>  <ref_pdb>  (394) 
A0473a

$$$$
C83115-P174
     RDKit          3D

 16 17  0  0  0  0  0  0  0  0999 V2000
    9.0497   15.2237   21.8589 N   0  0  0  0  0  0  0  0  0  0  0  0
    7.4714   14.7633   22.1074 S   0  0  0  0  0  0  0  0  0  0  0  0
    7.4029   13.3476   21.8639 O   0  0  0  0  0  0  0  0  0  0  0  0
    6.7031   15.6691   21.2991 O   0  0  0  0  0  0  0  0  0  0  0  0
    7.1656   15.0865   23.8287 C   0  0  0  0  0  0  0  0  0  0  0  0
    8.3782   15.0596   24.7501 C   0  0  0  0  0  0  0  0  0  0  0  0
    9.3451   13.8786   24.6671 C   0  0  0  0  0  0  0  0  0  0  0  0
    8.7955   12.5553   24.5474 N   0  0  0  0  0  0  0  0  0  0  0  0
    9.2976   11.5861   23.7119 C   0  0  0  0  0  0  0  0  0  0  0  0
    8.6948   10.4340   23.8894 N   0  0  0  0  0  0  0  0  0  0  0  0
    7.7502   10.6813   24.8386 C   0  0  0  0  0  0  0  0  0  0  0  0
    7.7919   11.9848   25.2744 C   0  0  0  0  0  0  0  0  0  0  0  0
    6.9143   12.5604   26.3246 C   0  0  0  0  0  0  0  0  0  0  0  0
    5.6824   11.6656   26.5292 C   0  0  0  0  0  0  0  0  0  0  0  0
    6.0390   10.1745   26.5777 C   0  0  0  0  0  0  0  0  0  0  0  0
    6.7886    9.6808   25.3306 C   0  0  0  0  0  0  0  0  0  0  0  0
  1  2  1  0
  2  3  2  0
  2  4  2  0
  2  5  1  0
  5  6  1  0
  6  7  1  0
  7  8  1  0
  8  9  1  0
  9 10  2  0
 10 11  1  0
 11 12  2  0
 12 13  1  0
 13 14  1  0
 14 15  1  0
 15 16  1  0
 12  8  1  0
 16 11  1  0
M  END
>  <inchikey>  (395) 
FZVASHCIYDDMFL-UHFFFAOYSA-N

>  <energy_score>  (395) 
-41.007043

>  <subsites>  (395) 
1 - Active Site

>  <alias>  (395) 
C83115-P174

>  <tags>  (395) 
openbind_a71ev2a_c1_scaffolds,BulkDock Fragalysis export,openbind_a71ev2a_c1_knitwork_impure,fragmenstein_placed

>  <distance_score>  (395) 
0.756828

>  <placement_batch>  (395) 
openbind_a71ev2a_c1_knitwork_impure

>  <name>  (395) 
C83115-P174

>  <ref_mols>  (395) 
A0719a,A3371a

>  <smiles>  (395) 
NS(=O)(=O)CCCn1cnc2c1CCCC2

>  <HIPPO Compound ID>  (395) 
899

>  <HIPPO Pose ID>  (395) 
415537

>  <ref_pdb>  (395) 
A0473a

$$$$
C33925-P219
     RDKit          3D

 22 24  0  0  0  0  0  0  0  0999 V2000
    5.6907   11.9896   27.2285 C   0  0  0  0  0  0  0  0  0  0  0  0
    6.3135   11.0552   26.3530 O   0  0  0  0  0  0  0  0  0  0  0  0
    7.1946   11.6093   25.4803 C   0  0  0  0  0  0  0  0  0  0  0  0
    8.2055   10.7967   24.9920 C   0  0  0  0  0  0  0  0  0  0  0  0
    9.2339   11.3613   24.2455 C   0  0  0  0  0  0  0  0  0  0  0  0
    9.1773   12.7171   23.9810 C   0  0  0  0  0  0  0  0  0  0  0  0
   10.2400   13.4106   23.4758 N   0  0  0  0  0  0  0  0  0  0  0  0
   11.7283   13.0578   23.4338 C   0  0  0  0  0  0  0  0  0  0  0  0
   12.3024   12.1562   23.8896 O   0  0  0  0  0  0  0  0  0  0  0  0
   12.4581   14.1257   22.7540 C   0  0  0  0  0  0  0  0  0  0  0  0
   13.3887   14.8586   23.4616 C   0  0  0  0  0  0  0  0  0  0  0  0
   13.9940   15.9506   22.8560 C   0  0  0  0  0  0  0  0  0  0  0  0
   13.7421   16.2800   21.5204 C   0  0  0  0  0  0  0  0  0  0  0  0
   12.9129   15.4159   20.7824 C   0  0  0  0  0  0  0  0  0  0  0  0
   12.2162   14.3834   21.4187 C   0  0  0  0  0  0  0  0  0  0  0  0
   12.7601   15.5107   19.3002 C   0  0  0  0  0  0  0  0  0  0  0  0
   12.0960   16.8084   18.9281 C   0  0  0  0  0  0  0  0  0  0  0  0
   12.8320   18.0939   19.3147 C   0  0  0  0  0  0  0  0  0  0  0  0
   14.2908   17.8795   19.6685 C   0  0  0  0  0  0  0  0  0  0  0  0
   14.4536   17.3591   21.0156 N   0  0  0  0  0  0  0  0  0  0  0  0
    8.1234   13.4835   24.2815 N   0  0  0  0  0  0  0  0  0  0  0  0
    7.1613   12.9171   25.0304 C   0  0  0  0  0  0  0  0  0  0  0  0
  1  2  1  0
  2  3  1  0
  3  4  2  0
  4  5  1  0
  5  6  2  0
  6  7  1  0
  7  8  1  0
  8  9  2  0
  8 10  1  0
 10 11  2  0
 11 12  1  0
 12 13  2  0
 13 14  1  0
 14 15  2  0
 14 16  1  0
 16 17  1  0
 17 18  1  0
 18 19  1  0
 19 20  1  0
  6 21  1  0
 21 22  2  0
 22  3  1  0
 15 10  1  0
 20 13  1  0
M  END
>  <inchikey>  (396) 
XXCNYTHYAPNDQY-UHFFFAOYSA-N

>  <energy_score>  (396) 
-39.756282

>  <subsites>  (396) 
1 - Active Site

>  <alias>  (396) 
C33925-P219

>  <tags>  (396) 
openbind_a71ev2a_c1_scaffolds,BulkDock Fragalysis export,openbind_a71ev2a_c1_knitwork_impure,fragmenstein_placed

>  <distance_score>  (396) 
0.853135

>  <placement_batch>  (396) 
openbind_a71ev2a_c1_knitwork_impure

>  <name>  (396) 
C33925-P219

>  <ref_mols>  (396) 
A3564a,A1778a

>  <smiles>  (396) 
COc1ccc(NC(=O)c2ccc3c(c2)CCCCN3)nc1

>  <HIPPO Compound ID>  (396) 
6632

>  <HIPPO Pose ID>  (396) 
416063

>  <ref_pdb>  (396) 
A3181b

$$$$
C1800-P190
     RDKit          3D

 16 18  0  0  0  0  0  0  0  0999 V2000
    8.3713   14.2918   24.5733 C   0  0  0  0  0  0  0  0  0  0  0  0
    7.7206   13.2594   25.1364 N   0  0  0  0  0  0  0  0  0  0  0  0
    7.9886   12.0229   24.6604 C   0  0  0  0  0  0  0  0  0  0  0  0
    8.9617   11.7761   23.7040 C   0  0  0  0  0  0  0  0  0  0  0  0
    9.6247   12.8827   23.1469 C   0  0  0  0  0  0  0  0  0  0  0  0
    9.2929   14.1777   23.5402 C   0  0  0  0  0  0  0  0  0  0  0  0
    9.8142   15.4550   22.9179 C   0  0  0  0  0  0  0  0  0  0  0  0
   11.0177   16.0134   23.6848 C   0  0  0  0  0  0  0  0  0  0  0  0
   12.3444   15.5570   23.1149 C   0  0  0  0  0  0  0  0  0  0  0  0
   12.4265   15.8761   21.6971 N   0  0  0  0  0  0  0  0  0  0  0  0
   11.4404   15.1021   20.9494 C   0  0  0  0  0  0  0  0  0  0  0  0
   10.0202   15.4365   21.3914 C   0  0  0  0  0  0  0  0  0  0  0  0
    9.3674   10.3812   23.3387 C   0  0  0  0  0  0  0  0  0  0  0  0
    8.3863    9.2748   23.6733 C   0  0  0  0  0  0  0  0  0  0  0  0
    7.3785    9.5363   24.7719 C   0  0  0  0  0  0  0  0  0  0  0  0
    7.1399   10.9515   25.2435 C   0  0  0  0  0  0  0  0  0  0  0  0
  1  2  2  0
  2  3  1  0
  3  4  2  0
  4  5  1  0
  5  6  2  0
  6  7  1  0
  7  8  1  0
  8  9  1  0
  9 10  1  0
 10 11  1  0
 11 12  1  0
  4 13  1  0
 13 14  1  0
 14 15  1  0
 15 16  1  0
  6  1  1  0
 12  7  1  0
 16  3  1  0
M  END
>  <inchikey>  (397) 
LEXQPYMCTMZRQM-UHFFFAOYSA-N

>  <energy_score>  (397) 
-13.733976

>  <subsites>  (397) 
1 - Active Site

>  <alias>  (397) 
C1800-P190

>  <tags>  (397) 
openbind_a71ev2a_c1_scaffolds,BulkDock Fragalysis export,openbind_a71ev2a_c1_knitwork_impure,fragmenstein_placed

>  <distance_score>  (397) 
0.796528

>  <placement_batch>  (397) 
openbind_a71ev2a_c1_knitwork_impure

>  <name>  (397) 
C1800-P190

>  <ref_mols>  (397) 
A0556a,A3509a

>  <smiles>  (397) 
c1nc2c(cc1C1CCNCC1)CCCC2

>  <HIPPO Compound ID>  (397) 
6093

>  <HIPPO Pose ID>  (397) 
417574

>  <ref_pdb>  (397) 
A3181b

$$$$
C1814-P190
     RDKit          3D

 16 18  0  0  0  0  0  0  0  0999 V2000
    8.3739   14.3408   24.6920 C   0  0  0  0  0  0  0  0  0  0  0  0
    7.7231   13.2871   25.2147 N   0  0  0  0  0  0  0  0  0  0  0  0
    7.9923   12.0693   24.6928 C   0  0  0  0  0  0  0  0  0  0  0  0
    8.9592   11.8601   23.7200 C   0  0  0  0  0  0  0  0  0  0  0  0
    9.6112   12.9904   23.1921 C   0  0  0  0  0  0  0  0  0  0  0  0
    9.2864   14.2691   23.6483 C   0  0  0  0  0  0  0  0  0  0  0  0
    9.8101   15.5704   23.0756 C   0  0  1  0  0  0  0  0  0  0  0  0
   11.1672   15.9721   23.6664 C   0  0  0  0  0  0  0  0  0  0  0  0
   12.3425   15.5241   22.8164 C   0  0  0  0  0  0  0  0  0  0  0  0
   12.1403   15.8921   21.3521 C   0  0  0  0  0  0  0  0  0  0  0  0
   10.9519   15.2182   20.8459 N   0  0  0  0  0  0  0  0  0  0  0  0
    9.7503   15.6809   21.5352 C   0  0  0  0  0  0  0  0  0  0  0  0
    9.3733   10.4770   23.3206 C   0  0  0  0  0  0  0  0  0  0  0  0
    8.4183    9.3444   23.6507 C   0  0  0  0  0  0  0  0  0  0  0  0
    7.4144    9.5705   24.7598 C   0  0  0  0  0  0  0  0  0  0  0  0
    7.1408   10.9778   25.2355 C   0  0  0  0  0  0  0  0  0  0  0  0
  1  2  2  0
  2  3  1  0
  3  4  2  0
  4  5  1  0
  5  6  2  0
  7  6  1  6
  7  8  1  0
  8  9  1  0
  9 10  1  0
 10 11  1  0
 11 12  1  0
  4 13  1  0
 13 14  1  0
 14 15  1  0
 15 16  1  0
  6  1  1  0
 12  7  1  0
 16  3  1  0
M  END
>  <inchikey>  (398) 
HGUKBOHHMVWXGD-UHFFFAOYSA-N

>  <energy_score>  (398) 
-15.753681

>  <subsites>  (398) 
1 - Active Site

>  <alias>  (398) 
C1814-P190

>  <tags>  (398) 
openbind_a71ev2a_c1_scaffolds,BulkDock Fragalysis export,openbind_a71ev2a_c1_knitwork_impure,fragmenstein_placed

>  <distance_score>  (398) 
0.795535

>  <placement_batch>  (398) 
openbind_a71ev2a_c1_knitwork_impure

>  <name>  (398) 
C1814-P190

>  <ref_mols>  (398) 
A0556a,A3509a

>  <smiles>  (398) 
c1nc2c(cc1[C@H]1CCCNC1)CCCC2

>  <HIPPO Compound ID>  (398) 
15402

>  <HIPPO Pose ID>  (398) 
417578

>  <ref_pdb>  (398) 
A3181b

$$$$
C1820-P190
     RDKit          3D

 11 12  0  0  0  0  0  0  0  0999 V2000
    8.3625   14.4216   25.1937 C   0  0  0  0  0  0  0  0  0  0  0  0
    7.9510   15.6507   25.4891 N   0  0  0  0  0  0  0  0  0  0  0  0
    6.4003   15.8284   24.9346 S   0  0  0  0  0  0  0  0  0  0  0  0
    6.2574   14.2429   24.3121 C   0  0  0  0  0  0  0  0  0  0  0  0
    7.4394   13.5503   24.5254 C   0  0  0  0  0  0  0  0  0  0  0  0
    7.6720   12.1106   24.1279 C   0  0  1  0  0  0  0  0  0  0  0  0
    9.1102   11.8058   23.7114 C   0  0  0  0  0  0  0  0  0  0  0  0
    9.3503   10.3221   23.4277 C   0  0  0  0  0  0  0  0  0  0  0  0
    8.2563    9.3817   23.9043 C   0  0  0  0  0  0  0  0  0  0  0  0
    7.6118    9.7696   25.1463 N   0  0  0  0  0  0  0  0  0  0  0  0
    7.1711   11.1539   25.2224 C   0  0  0  0  0  0  0  0  0  0  0  0
  1  2  2  0
  2  3  1  0
  3  4  1  0
  4  5  2  0
  6  5  1  1
  6  7  1  0
  7  8  1  0
  8  9  1  0
  9 10  1  0
 10 11  1  0
  5  1  1  0
 11  6  1  0
M  END
>  <inchikey>  (399) 
YUGVDPXJICVPLB-UHFFFAOYSA-N

>  <energy_score>  (399) 
-23.331797

>  <subsites>  (399) 
1 - Active Site

>  <alias>  (399) 
C1820-P190

>  <tags>  (399) 
openbind_a71ev2a_c1_scaffolds,BulkDock Fragalysis export,openbind_a71ev2a_c1_knitwork_impure,fragmenstein_placed

>  <distance_score>  (399) 
0.970126

>  <placement_batch>  (399) 
openbind_a71ev2a_c1_knitwork_impure

>  <name>  (399) 
C1820-P190

>  <ref_mols>  (399) 
A0556a,A3509a

>  <smiles>  (399) 
c1nscc1[C@H]1CCCNC1

>  <HIPPO Compound ID>  (399) 
1603

>  <HIPPO Pose ID>  (399) 
417580

>  <ref_pdb>  (399) 
A3181b

$$$$
C3508-P535
     RDKit          3D

 24 26  0  0  0  0  0  0  0  0999 V2000
    4.2177   11.4578    0.4957 C   0  0  0  0  0  0  0  0  0  0  0  0
    3.9472   12.9654    0.6363 C   0  0  0  0  0  0  0  0  0  0  0  0
    3.2152   13.2097    1.9850 C   0  0  0  0  0  0  0  0  0  0  0  0
    2.9863   13.3997   -0.4910 C   0  0  0  0  0  0  0  0  0  0  0  0
    5.2691   13.7932    0.5539 C   0  0  2  0  0  0  0  0  0  0  0  0
    6.1251   13.5446   -0.7073 C   0  0  0  0  0  0  0  0  0  0  0  0
    7.1453   14.5512   -0.8941 N   0  0  0  0  0  0  0  0  0  0  0  0
    7.6709   15.2199   -2.1831 C   0  0  0  0  0  0  0  0  0  0  0  0
    7.4166   15.0077   -3.3050 O   0  0  0  0  0  0  0  0  0  0  0  0
    8.7165   16.3193   -1.8173 C   0  0  0  0  0  0  0  0  0  0  0  0
    9.9342   15.9636   -0.9259 C   0  0  0  0  0  0  0  0  0  0  0  0
    9.8354   17.3799   -0.3272 C   0  0  0  0  0  0  0  0  0  0  0  0
    8.3614   17.4103   -0.7747 C   0  0  0  0  0  0  0  0  0  0  0  0
    6.0361   13.5415    1.7562 N   0  0  0  0  0  0  0  0  0  0  0  0
    7.2585   14.2571    2.3202 C   0  0  0  0  0  0  0  0  0  0  0  0
    7.8991   15.1178    1.8760 O   0  0  0  0  0  0  0  0  0  0  0  0
    7.4772   13.7393    3.6454 C   0  0  0  0  0  0  0  0  0  0  0  0
    7.5281   14.4956    4.8242 C   0  0  0  0  0  0  0  0  0  0  0  0
    7.4899   13.7264    5.9106 N   0  0  0  0  0  0  0  0  0  0  0  0
    7.5252   12.4228    5.4384 O   0  0  0  0  0  0  0  0  0  0  0  0
    7.5188   12.4307    4.0782 C   0  0  0  0  0  0  0  0  0  0  0  0
    7.4440   11.1426    3.2072 C   0  0  0  0  0  0  0  0  0  0  0  0
    8.6126   10.1993    3.1447 C   0  0  0  0  0  0  0  0  0  0  0  0
    8.2780   11.0430    1.9534 C   0  0  0  0  0  0  0  0  0  0  0  0
  1  2  1  0
  2  3  1  0
  2  4  1  0
  2  5  1  0
  5  6  1  6
  6  7  1  0
  7  8  1  0
  8  9  2  0
  8 10  1  0
 10 11  1  0
 11 12  1  0
 12 13  1  0
  5 14  1  0
 14 15  1  0
 15 16  2  0
 15 17  1  0
 17 18  1  0
 18 19  2  0
 19 20  1  0
 20 21  1  0
 21 22  1  0
 22 23  1  0
 23 24  1  0
 13 10  1  0
 21 17  2  0
 24 22  1  0
M  END
>  <inchikey>  (400) 
OTENLVGMSKIYLZ-UHFFFAOYSA-N

>  <energy_score>  (400) 
-29.150714

>  <subsites>  (400) 
1 - Active Site,3 - A0541/A/147/1

>  <alias>  (400) 
C3508-P535

>  <tags>  (400) 
openbind_a71ev2a_c1_scaffolds,BulkDock Fragalysis export,openbind_a71ev2a_c1_knitwork_impure,fragmenstein_placed

>  <distance_score>  (400) 
0.952273

>  <placement_batch>  (400) 
openbind_a71ev2a_c1_knitwork_impure

>  <name>  (400) 
C3508-P535

>  <ref_mols>  (400) 
A0541a,A4943a

>  <smiles>  (400) 
CC(C)(C)[C@H](CNC(=O)C1CCC1)NC(=O)c1cnoc1C1CC1

>  <HIPPO Compound ID>  (400) 
3542

>  <HIPPO Pose ID>  (400) 
417981

>  <ref_pdb>  (400) 
A3181b

$$$$
C1360-P303
     RDKit          3D

 21 22  0  0  0  0  0  0  0  0999 V2000
    9.5760   13.4521   24.9586 C   0  0  0  0  0  0  0  0  0  0  0  0
    8.3399   12.9050   24.2479 C   0  0  2  0  0  0  0  0  0  0  0  0
    7.9343   13.5218   22.8894 C   0  0  0  0  0  0  0  0  0  0  0  0
    7.1860   12.9518   22.2115 O   0  0  0  0  0  0  0  0  0  0  0  0
    8.7151   14.7990   22.6378 N   0  0  0  0  0  0  0  0  0  0  0  0
    8.8181   15.5788   21.5046 O   0  0  0  0  0  0  0  0  0  0  0  0
    9.7546   14.8947   20.6912 C   0  0  0  0  0  0  0  0  0  0  0  0
    9.9732   15.5619   19.3547 C   0  0  0  0  0  0  0  0  0  0  0  0
   11.2431   14.8903   18.8768 C   0  0  0  0  0  0  0  0  0  0  0  0
   12.0492   14.5891   20.1435 C   0  0  0  0  0  0  0  0  0  0  0  0
   11.1454   14.8812   21.3112 C   0  0  0  0  0  0  0  0  0  0  0  0
    7.2109   12.6268   25.2365 C   0  0  0  0  0  0  0  0  0  0  0  0
    7.2267   11.3752   25.8899 C   0  0  0  0  0  0  0  0  0  0  0  0
    6.2723   11.0430   26.8512 C   0  0  0  0  0  0  0  0  0  0  0  0
    5.2964   11.9575   27.2082 C   0  0  0  0  0  0  0  0  0  0  0  0
    5.2424   13.1851   26.5592 C   0  0  0  0  0  0  0  0  0  0  0  0
    6.1749   13.5335   25.5586 C   0  0  0  0  0  0  0  0  0  0  0  0
    5.9861   14.8691   24.8728 C   0  0  0  0  0  0  0  0  0  0  0  0
    5.0611   15.6588   25.4897 F   0  0  0  0  0  0  0  0  0  0  0  0
    7.1494   15.5813   24.9118 F   0  0  0  0  0  0  0  0  0  0  0  0
    5.6118   14.7886   23.5760 F   0  0  0  0  0  0  0  0  0  0  0  0
  2  1  1  1
  2  3  1  0
  3  4  2  0
  3  5  1  0
  5  6  1  0
  6  7  1  0
  7  8  1  0
  8  9  1  0
  9 10  1  0
 10 11  1  0
  2 12  1  0
 12 13  2  0
 13 14  1  0
 14 15  2  0
 15 16  1  0
 16 17  2  0
 17 18  1  0
 18 19  1  0
 18 20  1  0
 18 21  1  0
 11  7  1  0
 17 12  1  0
M  END
>  <inchikey>  (401) 
QNCXQWQUBKXTSX-UHFFFAOYSA-N

>  <energy_score>  (401) 
-1.78173

>  <subsites>  (401) 
1 - Active Site

>  <alias>  (401) 
C1360-P303

>  <tags>  (401) 
openbind_a71ev2a_c1_scaffolds,BulkDock Fragalysis export,openbind_a71ev2a_c1_knitwork_impure,fragmenstein_placed

>  <distance_score>  (401) 
0.880283

>  <placement_batch>  (401) 
openbind_a71ev2a_c1_knitwork_impure

>  <name>  (401) 
C1360-P303

>  <ref_mols>  (401) 
A1080a,A4320a

>  <smiles>  (401) 
C[C@H](C(=O)NOC1CCCC1)c1ccccc1C(F)(F)F

>  <HIPPO Compound ID>  (401) 
1360

>  <HIPPO Pose ID>  (401) 
418119

>  <ref_pdb>  (401) 
A3181b

$$$$
C2086-P296
     RDKit          3D

 15 17  0  0  0  0  0  0  0  0999 V2000
   11.1585   15.1761   21.1984 C   0  0  0  0  0  0  0  0  0  0  0  0
   11.3996   14.9517   22.6811 C   0  0  0  0  0  0  0  0  0  0  0  0
   10.3914   15.7482   23.4963 C   0  0  0  0  0  0  0  0  0  0  0  0
    8.9392   15.5176   23.0550 C   0  0  2  0  0  0  0  0  0  0  0  0
    8.3875   14.2551   23.6650 C   0  0  0  0  0  0  0  0  0  0  0  0
    8.8113   13.0106   23.5178 N   0  0  0  0  0  0  0  0  0  0  0  0
    8.1205   12.2765   24.4358 C   0  0  0  0  0  0  0  0  0  0  0  0
    7.2959   13.0785   25.1815 C   0  0  0  0  0  0  0  0  0  0  0  0
    7.3927   14.3152   24.6205 N   0  0  0  0  0  0  0  0  0  0  0  0
    6.4583   12.6701   26.3234 C   0  0  0  0  0  0  0  0  0  0  0  0
    6.1986   11.1639   26.2320 C   0  0  0  0  0  0  0  0  0  0  0  0
    7.4172   10.3262   25.8098 C   0  0  0  0  0  0  0  0  0  0  0  0
    8.2349   10.8165   24.6044 C   0  0  0  0  0  0  0  0  0  0  0  0
    8.7405   15.6398   21.6083 N   0  0  0  0  0  0  0  0  0  0  0  0
    9.7134   14.8576   20.8377 C   0  0  0  0  0  0  0  0  0  0  0  0
  1  2  1  0
  2  3  1  0
  3  4  1  0
  4  5  1  6
  5  6  2  0
  6  7  1  0
  7  8  2  0
  8  9  1  0
  8 10  1  0
 10 11  1  0
 11 12  1  0
 12 13  1  0
  4 14  1  0
 14 15  1  0
 15  1  1  0
  9  5  1  0
 13  7  1  0
M  END
>  <inchikey>  (402) 
ZUUHCJUCTFFCMF-UHFFFAOYSA-N

>  <energy_score>  (402) 
-27.523333

>  <subsites>  (402) 
1 - Active Site

>  <alias>  (402) 
C2086-P296

>  <tags>  (402) 
openbind_a71ev2a_c1_scaffolds,BulkDock Fragalysis export,openbind_a71ev2a_c1_knitwork_impure,fragmenstein_placed

>  <distance_score>  (402) 
0.974517

>  <placement_batch>  (402) 
openbind_a71ev2a_c1_knitwork_impure

>  <name>  (402) 
C2086-P296

>  <ref_mols>  (402) 
A4311a,A3371a

>  <smiles>  (402) 
C1CC[C@H](c2nc3c([nH]2)CCCC3)NC1

>  <HIPPO Compound ID>  (402) 
947

>  <HIPPO Pose ID>  (402) 
419182

>  <ref_pdb>  (402) 
A3181b

$$$$
C3758-P497
     RDKit          3D

 11 12  0  0  0  0  0  0  0  0999 V2000
    8.9015    9.7313   24.3813 C   0  0  0  0  0  0  0  0  0  0  0  0
    9.3877   10.9520   23.8776 C   0  0  0  0  0  0  0  0  0  0  0  0
    8.6856   11.9274   24.5535 C   0  0  0  0  0  0  0  0  0  0  0  0
    8.7013   13.4198   24.5154 C   0  0  2  0  0  0  0  0  0  0  0  0
   10.0470   13.9775   24.0164 C   0  0  0  0  0  0  0  0  0  0  0  0
   10.0808   15.5046   24.0816 C   0  0  0  0  0  0  0  0  0  0  0  0
    9.6529   16.0034   25.4578 C   0  0  0  0  0  0  0  0  0  0  0  0
    8.3264   15.3789   25.8782 C   0  0  0  0  0  0  0  0  0  0  0  0
    8.4176   13.9184   25.8726 N   0  0  0  0  0  0  0  0  0  0  0  0
    7.7932   11.2435   25.3379 N   0  0  0  0  0  0  0  0  0  0  0  0
    7.9539    9.9093   25.3072 N   0  0  0  0  0  0  0  0  0  0  0  0
  1  2  1  0
  2  3  2  0
  4  3  1  1
  4  5  1  0
  5  6  1  0
  6  7  1  0
  7  8  1  0
  8  9  1  0
  3 10  1  0
 10 11  1  0
 11  1  2  0
  9  4  1  0
M  END
>  <inchikey>  (403) 
YSMNEIYXJLPLOA-UHFFFAOYSA-N

>  <energy_score>  (403) 
-31.536167

>  <subsites>  (403) 
1 - Active Site

>  <alias>  (403) 
C3758-P497

>  <tags>  (403) 
openbind_a71ev2a_c1_scaffolds,BulkDock Fragalysis export,openbind_a71ev2a_c1_knitwork_impure,fragmenstein_placed

>  <distance_score>  (403) 
0.708259

>  <placement_batch>  (403) 
openbind_a71ev2a_c1_knitwork_impure

>  <name>  (403) 
C3758-P497

>  <ref_mols>  (403) 
A4877b,A0556a

>  <smiles>  (403) 
c1cc([C@@H]2CCCCN2)[nH]n1

>  <HIPPO Compound ID>  (403) 
83456

>  <HIPPO Pose ID>  (403) 
419235

>  <ref_pdb>  (403) 
A3181b

$$$$
C16020-P135
     RDKit          3D

 17 17  0  0  0  0  0  0  0  0999 V2000
    9.0582    9.9665   23.7708 C   0  0  0  0  0  0  0  0  0  0  0  0
    8.0642   10.6757   24.6868 C   0  0  1  0  0  0  0  0  0  0  0  0
    7.2605    9.6764   25.2991 O   0  0  0  0  0  0  0  0  0  0  0  0
    8.7061   11.5386   25.7574 C   0  0  0  0  0  0  0  0  0  0  0  0
    8.7543   13.0122   25.3938 C   0  0  0  0  0  0  0  0  0  0  0  0
    9.3788   13.3289   24.0435 C   0  0  0  0  0  0  0  0  0  0  0  0
   10.8211   12.8400   23.9081 C   0  0  0  0  0  0  0  0  0  0  0  0
   11.3501   13.0241   22.4890 C   0  0  0  0  0  0  0  0  0  0  0  0
   11.5914   14.4763   22.1620 C   0  0  0  0  0  0  0  0  0  0  0  0
   11.3347   15.3338   22.9055 O   0  0  0  0  0  0  0  0  0  0  0  0
   12.2487   14.5258   20.7673 N   0  0  0  0  0  0  0  0  0  0  0  0
   12.7915   15.5900   20.0661 C   0  0  0  0  0  0  0  0  0  0  0  0
   13.0802   15.4713   18.7201 C   0  0  0  0  0  0  0  0  0  0  0  0
   13.6617   16.5483   18.0567 C   0  0  0  0  0  0  0  0  0  0  0  0
   13.9354   17.7020   18.7739 C   0  0  0  0  0  0  0  0  0  0  0  0
   13.6406   17.8660   20.0780 N   0  0  0  0  0  0  0  0  0  0  0  0
   13.0595   16.8036   20.6882 C   0  0  0  0  0  0  0  0  0  0  0  0
  2  1  1  1
  2  3  1  0
  2  4  1  0
  4  5  1  0
  5  6  1  0
  6  7  1  0
  7  8  1  0
  8  9  1  0
  9 10  2  0
  9 11  1  0
 11 12  1  0
 12 13  2  0
 13 14  1  0
 14 15  2  0
 15 16  1  0
 16 17  2  0
 17 12  1  0
M  END
>  <inchikey>  (404) 
YAKIUUAPXQUGEU-UHFFFAOYSA-N

>  <energy_score>  (404) 
-16.744482

>  <subsites>  (404) 
1 - Active Site

>  <alias>  (404) 
C16020-P135

>  <tags>  (404) 
openbind_a71ev2a_c1_scaffolds,BulkDock Fragalysis export,openbind_a71ev2a_c1_knitwork_impure,fragmenstein_placed

>  <distance_score>  (404) 
0.988372

>  <placement_batch>  (404) 
openbind_a71ev2a_c1_knitwork_impure

>  <name>  (404) 
C16020-P135

>  <ref_mols>  (404) 
A1445a,A2629a

>  <smiles>  (404) 
C[C@@H](O)CCCCCC(=O)Nc1cccnc1

>  <HIPPO Compound ID>  (404) 
20634

>  <HIPPO Pose ID>  (404) 
419310

>  <ref_pdb>  (404) 
A3181b

$$$$
C1783-P444
     RDKit          3D

 15 17  0  0  0  0  0  0  0  0999 V2000
    8.7636   10.0069   23.9282 C   0  0  0  0  0  0  0  0  0  0  0  0
    9.7189   11.1096   23.4757 C   0  0  0  0  0  0  0  0  0  0  0  0
    9.0852   12.5002   23.3874 C   0  0  0  0  0  0  0  0  0  0  0  0
    8.3001   12.7587   24.6530 C   0  0  1  0  0  0  0  0  0  0  0  0
    7.7994   14.1606   24.8590 C   0  0  0  0  0  0  0  0  0  0  0  0
    7.9621   14.8060   26.0014 N   0  0  0  0  0  0  0  0  0  0  0  0
    7.1675   15.9329   26.0141 C   0  0  0  0  0  0  0  0  0  0  0  0
    6.4526   16.1530   24.8536 C   0  0  0  0  0  0  0  0  0  0  0  0
    6.8150   14.9521   23.6971 S   0  0  0  0  0  0  0  0  0  0  0  0
    5.4762   17.2369   24.5825 C   0  0  0  0  0  0  0  0  0  0  0  0
    4.7300   17.8340   26.1445 S   0  0  0  0  0  0  0  0  0  0  0  0
    6.2876   18.0573   27.0751 C   0  0  0  0  0  0  0  0  0  0  0  0
    7.0441   16.7401   27.2660 C   0  0  0  0  0  0  0  0  0  0  0  0
    7.2062   11.7736   24.7591 N   0  0  0  0  0  0  0  0  0  0  0  0
    7.7520   10.4414   24.9809 C   0  0  0  0  0  0  0  0  0  0  0  0
  1  2  1  0
  2  3  1  0
  3  4  1  0
  4  5  1  6
  5  6  2  0
  6  7  1  0
  7  8  2  0
  8  9  1  0
  8 10  1  0
 10 11  1  0
 11 12  1  0
 12 13  1  0
  4 14  1  0
 14 15  1  0
 15  1  1  0
  9  5  1  0
 13  7  1  0
M  END
>  <inchikey>  (405) 
QNWXUKIQSJVNRS-UHFFFAOYSA-N

>  <energy_score>  (405) 
-50.12749

>  <subsites>  (405) 
1 - Active Site

>  <alias>  (405) 
C1783-P444

>  <tags>  (405) 
openbind_a71ev2a_c1_scaffolds,BulkDock Fragalysis export,openbind_a71ev2a_c1_knitwork_impure,fragmenstein_placed

>  <distance_score>  (405) 
0.80546

>  <placement_batch>  (405) 
openbind_a71ev2a_c1_knitwork_impure

>  <name>  (405) 
C1783-P444

>  <ref_mols>  (405) 
A3623a,A4712a

>  <smiles>  (405) 
C1CC[C@@H](c2nc3c(s2)CSCC3)NC1

>  <HIPPO Compound ID>  (405) 
8146

>  <HIPPO Pose ID>  (405) 
419646

>  <ref_pdb>  (405) 
A0341a

$$$$
C1795-P444
     RDKit          3D

 15 17  0  0  0  0  0  0  0  0999 V2000
   11.8483   15.4411   21.6210 C   0  0  0  0  0  0  0  0  0  0  0  0
   11.8207   14.3489   22.6801 C   0  0  0  0  0  0  0  0  0  0  0  0
   10.5406   14.3993   23.5070 C   0  0  0  0  0  0  0  0  0  0  0  0
    9.3466   14.3815   22.6522 N   0  0  0  0  0  0  0  0  0  0  0  0
    8.1762   14.0769   23.3047 C   0  0  0  0  0  0  0  0  0  0  0  0
    8.1113   13.2455   24.3319 N   0  0  0  0  0  0  0  0  0  0  0  0
    6.8244   13.1629   24.8195 C   0  0  0  0  0  0  0  0  0  0  0  0
    5.9158   14.0008   24.2187 C   0  0  0  0  0  0  0  0  0  0  0  0
    6.6261   14.7421   22.8718 S   0  0  0  0  0  0  0  0  0  0  0  0
    4.4949   14.1845   24.6300 C   0  0  0  0  0  0  0  0  0  0  0  0
    4.2157   13.4542   25.9592 C   0  0  0  0  0  0  0  0  0  0  0  0
    4.9465   12.1034   26.0735 C   0  0  0  0  0  0  0  0  0  0  0  0
    6.4686   12.2779   25.9619 C   0  0  0  0  0  0  0  0  0  0  0  0
    9.3345   15.3868   21.5772 C   0  0  0  0  0  0  0  0  0  0  0  0
   10.6119   15.3355   20.7444 C   0  0  0  0  0  0  0  0  0  0  0  0
  1  2  1  0
  2  3  1  0
  3  4  1  0
  4  5  1  0
  5  6  2  0
  6  7  1  0
  7  8  2  0
  8  9  1  0
  8 10  1  0
 10 11  1  0
 11 12  1  0
 12 13  1  0
  4 14  1  0
 14 15  1  0
 15  1  1  0
  9  5  1  0
 13  7  1  0
M  END
>  <inchikey>  (406) 
SAYPJXMWJADRCE-UHFFFAOYSA-N

>  <energy_score>  (406) 
-96.465011

>  <subsites>  (406) 
1 - Active Site

>  <alias>  (406) 
C1795-P444

>  <tags>  (406) 
openbind_a71ev2a_c1_scaffolds,BulkDock Fragalysis export,openbind_a71ev2a_c1_knitwork_impure,fragmenstein_placed

>  <distance_score>  (406) 
0.943391

>  <placement_batch>  (406) 
openbind_a71ev2a_c1_knitwork_impure

>  <name>  (406) 
C1795-P444

>  <ref_mols>  (406) 
A3623a,A4712a

>  <smiles>  (406) 
C1CCN(c2nc3c(s2)CCCC3)CC1

>  <HIPPO Compound ID>  (406) 
85390

>  <HIPPO Pose ID>  (406) 
419648

>  <ref_pdb>  (406) 
A0341a

$$$$
C31081-P273
     RDKit          3D

 16 16  0  0  0  0  0  0  0  0999 V2000
    9.6566   10.1693   23.2786 C   0  0  0  0  0  0  0  0  0  0  0  0
    8.4943   10.0136   24.2270 C   0  0  0  0  0  0  0  0  0  0  0  0
    7.9571   11.2041   25.0417 C   0  0  1  0  0  0  0  0  0  0  0  0
    7.8240   12.5295   24.2886 C   0  0  0  0  0  0  0  0  0  0  0  0
    9.2010   13.1627   24.1676 C   0  0  0  0  0  0  0  0  0  0  0  0
   10.1627   12.6564   24.5871 O   0  0  0  0  0  0  0  0  0  0  0  0
    9.0249   14.4832   23.3840 N   0  0  0  0  0  0  0  0  0  0  0  0
    9.9567   15.3582   22.8988 N   0  0  0  0  0  0  0  0  0  0  0  0
    9.8362   15.6124   21.4669 C   0  0  0  0  0  0  0  0  0  0  0  0
   11.1011   15.2989   20.6910 C   0  0  0  0  0  0  0  0  0  0  0  0
   12.2953   15.8720   21.4295 C   0  0  0  0  0  0  0  0  0  0  0  0
   12.4037   15.2267   22.7890 C   0  0  0  0  0  0  0  0  0  0  0  0
   11.1544   15.3715   23.6148 C   0  0  0  0  0  0  0  0  0  0  0  0
   11.2183   15.3386   24.8473 O   0  0  0  0  0  0  0  0  0  0  0  0
    6.4222   10.6013   25.8657 S   0  0  0  0  0  0  0  0  0  0  0  0
    5.7383   12.0755   26.6197 C   0  0  0  0  0  0  0  0  0  0  0  0
  1  2  1  0
  3  2  1  6
  3  4  1  0
  4  5  1  0
  5  6  2  0
  5  7  1  0
  7  8  1  0
  8  9  1  0
  9 10  1  0
 10 11  1  0
 11 12  1  0
 12 13  1  0
 13 14  2  0
  3 15  1  0
 15 16  1  0
 13  8  1  0
M  END
>  <inchikey>  (407) 
MCFMRUUMBUBRGV-UHFFFAOYSA-N

>  <energy_score>  (407) 
-21.463371

>  <subsites>  (407) 
1 - Active Site

>  <alias>  (407) 
C31081-P273

>  <tags>  (407) 
openbind_a71ev2a_c1_scaffolds,BulkDock Fragalysis export,openbind_a71ev2a_c1_knitwork_impure,fragmenstein_placed

>  <distance_score>  (407) 
0.947696

>  <placement_batch>  (407) 
openbind_a71ev2a_c1_knitwork_impure

>  <name>  (407) 
C31081-P273

>  <ref_mols>  (407) 
A1445a,A4029a

>  <smiles>  (407) 
CC[C@@H](CC(=O)NN1CCCCC1=O)SC

>  <HIPPO Compound ID>  (407) 
5638

>  <HIPPO Pose ID>  (407) 
419729

>  <ref_pdb>  (407) 
A0341a

$$$$
C8153-P611
     RDKit          3D

 15 15  0  0  0  0  0  0  0  0999 V2000
   12.1453   15.9995   21.9285 C   0  0  0  0  0  0  0  0  0  0  0  0
   12.1835   15.3213   23.0846 C   0  0  0  0  0  0  0  0  0  0  0  0
   11.0732   14.6024   23.7948 C   0  0  0  0  0  0  0  0  0  0  0  0
    9.7274   14.6778   23.0916 C   0  0  0  0  0  0  0  0  0  0  0  0
    8.7522   13.5261   23.3961 C   0  0  1  0  0  0  0  0  0  0  0  0
    7.5370   13.8314   22.5094 C   0  0  0  0  0  0  0  0  0  0  0  0
    9.3305   12.2796   23.0196 O   0  0  0  0  0  0  0  0  0  0  0  0
    8.2668   13.4901   24.8654 C   0  0  0  0  0  0  0  0  0  0  0  0
    8.6333   14.3467   25.6759 O   0  0  0  0  0  0  0  0  0  0  0  0
    7.2123   12.4208   25.2316 C   0  0  1  0  0  0  0  0  0  0  0  0
    7.7617   11.0054   25.2474 C   0  0  0  0  0  0  0  0  0  0  0  0
    6.6877    9.9965   25.6189 C   0  0  0  0  0  0  0  0  0  0  0  0
    5.7452   10.4166   26.7378 C   0  0  0  0  0  0  0  0  0  0  0  0
    5.4177   11.9041   26.7363 C   0  0  0  0  0  0  0  0  0  0  0  0
    6.6226   12.7096   26.5595 N   0  0  0  0  0  0  0  0  0  0  0  0
  1  2  2  0
  2  3  1  0
  3  4  1  0
  4  5  1  0
  5  6  1  6
  5  7  1  0
  5  8  1  0
  8  9  2  0
 10  8  1  1
 10 11  1  0
 11 12  1  0
 12 13  1  0
 13 14  1  0
 14 15  1  0
 15 10  1  0
M  END
>  <inchikey>  (408) 
BYVHTZLWXASNFG-UHFFFAOYSA-N

>  <energy_score>  (408) 
-19.638896

>  <subsites>  (408) 
1 - Active Site

>  <alias>  (408) 
C8153-P611

>  <tags>  (408) 
openbind_a71ev2a_c1_scaffolds,BulkDock Fragalysis export,openbind_a71ev2a_c1_knitwork_impure,fragmenstein_placed

>  <distance_score>  (408) 
0.974551

>  <placement_batch>  (408) 
openbind_a71ev2a_c1_knitwork_impure

>  <name>  (408) 
C8153-P611

>  <ref_mols>  (408) 
A5393a,A0719a

>  <smiles>  (408) 
C=CCC[C@@](C)(O)C(=O)[C@H]1CCCCN1

>  <HIPPO Compound ID>  (408) 
14499

>  <HIPPO Pose ID>  (408) 
419765

>  <ref_pdb>  (408) 
A0341a

$$$$
C8173-P611
     RDKit          3D

 17 17  0  0  0  0  0  0  0  0999 V2000
    7.5576   13.2072   22.3457 O   0  0  0  0  0  0  0  0  0  0  0  0
    8.3345   13.8311   22.9554 C   0  0  0  0  0  0  0  0  0  0  0  0
    9.2631   14.9988   22.5093 N   0  0  0  0  0  0  0  0  0  0  0  0
    9.4900   15.5684   21.2023 C   0  0  0  0  0  0  0  0  0  0  0  0
   10.9268   15.3133   20.7840 C   0  0  0  0  0  0  0  0  0  0  0  0
   11.1361   15.5563   19.3134 C   0  0  0  0  0  0  0  0  0  0  0  0
   10.5044   14.6547   18.5488 F   0  0  0  0  0  0  0  0  0  0  0  0
   10.7123   16.7840   18.9589 F   0  0  0  0  0  0  0  0  0  0  0  0
   12.4476   15.4527   19.0189 F   0  0  0  0  0  0  0  0  0  0  0  0
    8.7291   13.5648   24.4222 C   0  0  1  0  0  0  0  0  0  0  0  0
    8.6380   14.7058   25.1715 F   0  0  0  0  0  0  0  0  0  0  0  0
    8.0223   12.4414   25.1731 C   0  0  0  0  0  0  0  0  0  0  0  0
    8.1484   11.0773   24.4989 C   0  0  0  0  0  0  0  0  0  0  0  0
    7.4137   10.0066   25.2880 C   0  0  0  0  0  0  0  0  0  0  0  0
    6.0411   10.3367   25.6205 N   0  0  0  0  0  0  0  0  0  0  0  0
    5.8967   11.6324   26.2724 C   0  0  0  0  0  0  0  0  0  0  0  0
    6.5673   12.7693   25.5025 C   0  0  0  0  0  0  0  0  0  0  0  0
  1  2  2  0
  2  3  1  0
  3  4  1  0
  4  5  1  0
  5  6  1  0
  6  7  1  0
  6  8  1  0
  6  9  1  0
  2 10  1  0
 10 11  1  1
 10 12  1  0
 12 13  1  0
 13 14  1  0
 14 15  1  0
 15 16  1  0
 16 17  1  0
 17 12  1  0
M  END
>  <inchikey>  (409) 
WPLGLYZQTMZENA-UHFFFAOYSA-N

>  <energy_score>  (409) 
-8.678656

>  <subsites>  (409) 
1 - Active Site

>  <alias>  (409) 
C8173-P611

>  <tags>  (409) 
openbind_a71ev2a_c1_scaffolds,BulkDock Fragalysis export,openbind_a71ev2a_c1_knitwork_impure,fragmenstein_placed

>  <distance_score>  (409) 
0.932843

>  <placement_batch>  (409) 
openbind_a71ev2a_c1_knitwork_impure

>  <name>  (409) 
C8173-P611

>  <ref_mols>  (409) 
A5393a,A0719a

>  <smiles>  (409) 
O=C(NCCC(F)(F)F)[C@@H](F)C1CCNCC1

>  <HIPPO Compound ID>  (409) 
1305

>  <HIPPO Pose ID>  (409) 
419782

>  <ref_pdb>  (409) 
A0341a

$$$$
C8137-P325
     RDKit          3D

 18 18  0  0  0  0  0  0  0  0999 V2000
   11.1671   15.5009   23.8611 C   0  0  0  0  0  0  0  0  0  0  0  0
   11.7393   14.8544   22.6187 C   0  0  0  0  0  0  0  0  0  0  0  0
   11.0979   15.2973   21.3011 C   0  0  0  0  0  0  0  0  0  0  0  0
    9.6638   14.8136   21.0405 C   0  0  0  0  0  0  0  0  0  0  0  0
    8.5836   15.6498   21.5907 N   0  0  0  0  0  0  0  0  0  0  0  0
    8.7897   17.0921   21.5971 C   0  0  0  0  0  0  0  0  0  0  0  0
    7.2099   14.9840   22.2528 S   0  0  0  0  0  0  0  0  0  0  0  0
    7.0511   13.6241   21.7976 O   0  0  0  0  0  0  0  0  0  0  0  0
    6.1089   15.9128   22.1985 O   0  0  0  0  0  0  0  0  0  0  0  0
    7.7443   14.9928   23.8490 N   0  0  0  0  0  0  0  0  0  0  0  0
    7.1367   14.0301   24.7779 C   0  0  2  0  0  0  0  0  0  0  0  0
    6.9232   14.7381   26.1241 C   0  0  0  0  0  0  0  0  0  0  0  0
    8.0223   12.7732   24.9915 C   0  0  0  0  0  0  0  0  0  0  0  0
    7.0940   11.6093   25.3504 C   0  0  0  0  0  0  0  0  0  0  0  0
    7.8207   10.2887   25.4394 C   0  0  0  0  0  0  0  0  0  0  0  0
    8.6489    9.9666   24.2938 N   0  0  0  0  0  0  0  0  0  0  0  0
    9.6135   11.0193   24.0229 C   0  0  0  0  0  0  0  0  0  0  0  0
    8.9215   12.3558   23.8229 C   0  0  0  0  0  0  0  0  0  0  0  0
  1  2  1  0
  2  3  1  0
  3  4  1  0
  4  5  1  0
  5  6  1  0
  5  7  1  0
  7  8  2  0
  7  9  2  0
  7 10  1  0
 10 11  1  0
 11 12  1  1
 11 13  1  0
 13 14  1  0
 14 15  1  0
 15 16  1  0
 16 17  1  0
 17 18  1  0
 18 13  1  0
M  END
>  <inchikey>  (410) 
MVAWIACTJXPSAP-UHFFFAOYSA-N

>  <energy_score>  (410) 
-52.526444

>  <subsites>  (410) 
1 - Active Site

>  <alias>  (410) 
C8137-P325

>  <tags>  (410) 
openbind_a71ev2a_c1_scaffolds,BulkDock Fragalysis export,openbind_a71ev2a_c1_knitwork_impure,fragmenstein_placed

>  <distance_score>  (410) 
0.979868

>  <placement_batch>  (410) 
openbind_a71ev2a_c1_knitwork_impure

>  <name>  (410) 
C8137-P325

>  <ref_mols>  (410) 
A0719a,A4368a

>  <smiles>  (410) 
CCCCN(C)S(=O)(=O)N[C@H](C)C1CCNCC1

>  <HIPPO Compound ID>  (410) 
39794

>  <HIPPO Pose ID>  (410) 
420103

>  <ref_pdb>  (410) 
A0341a

$$$$
C8152-P325
     RDKit          3D

 14 14  0  0  0  0  0  0  0  0999 V2000
    9.5043    9.0924   23.8193 C   0  0  0  0  0  0  0  0  0  0  0  0
    9.5088   10.5967   23.9941 C   0  0  0  0  0  0  0  0  0  0  0  0
    8.1556   11.0021   24.2411 O   0  0  0  0  0  0  0  0  0  0  0  0
    7.8656   12.1231   24.9433 C   0  0  0  0  0  0  0  0  0  0  0  0
    6.8530   12.1651   25.6369 O   0  0  0  0  0  0  0  0  0  0  0  0
    8.8178   13.3157   24.7944 C   0  0  2  0  0  0  0  0  0  0  0  0
    8.4527   14.3363   25.7340 O   0  0  0  0  0  0  0  0  0  0  0  0
    8.7726   13.8801   23.3542 C   0  0  0  0  0  0  0  0  0  0  0  0
    9.3654   15.2204   23.1942 N   0  0  0  0  0  0  0  0  0  0  0  0
   10.7564   15.3467   23.6406 C   0  0  0  0  0  0  0  0  0  0  0  0
   11.7711   14.7045   22.6984 C   0  0  0  0  0  0  0  0  0  0  0  0
   11.6320   15.2667   21.2892 C   0  0  0  0  0  0  0  0  0  0  0  0
   10.1891   15.1580   20.8103 C   0  0  0  0  0  0  0  0  0  0  0  0
    9.2106   15.7501   21.8273 C   0  0  0  0  0  0  0  0  0  0  0  0
  1  2  1  0
  2  3  1  0
  3  4  1  0
  4  5  2  0
  4  6  1  0
  6  7  1  1
  6  8  1  0
  8  9  1  0
  9 10  1  0
 10 11  1  0
 11 12  1  0
 12 13  1  0
 13 14  1  0
 14  9  1  0
M  END
>  <inchikey>  (411) 
KNQXNDJGVDPOSN-UHFFFAOYSA-N

>  <energy_score>  (411) 
-19.416259

>  <subsites>  (411) 
1 - Active Site

>  <alias>  (411) 
C8152-P325

>  <tags>  (411) 
openbind_a71ev2a_c1_scaffolds,BulkDock Fragalysis export,openbind_a71ev2a_c1_knitwork_impure,fragmenstein_placed

>  <distance_score>  (411) 
0.779133

>  <placement_batch>  (411) 
openbind_a71ev2a_c1_knitwork_impure

>  <name>  (411) 
C8152-P325

>  <ref_mols>  (411) 
A0719a,A4368a

>  <smiles>  (411) 
CCOC(=O)[C@H](O)CN1CCCCC1

>  <HIPPO Compound ID>  (411) 
15069

>  <HIPPO Pose ID>  (411) 
420111

>  <ref_pdb>  (411) 
A0341a

$$$$
C8176-P325
     RDKit          3D

 15 15  0  0  0  0  0  0  0  0999 V2000
    7.9083   15.1270   25.3545 C   0  0  0  0  0  0  0  0  0  0  0  0
    8.2444   13.7235   24.8372 C   0  0  2  0  0  0  0  0  0  0  0  0
    9.4591   13.3162   25.4754 O   0  0  0  0  0  0  0  0  0  0  0  0
    8.4232   13.7829   23.2810 C   0  0  0  0  0  0  0  0  0  0  0  0
    7.7383   13.0873   22.5188 O   0  0  0  0  0  0  0  0  0  0  0  0
    9.4473   14.7699   22.7394 C   0  0  0  0  0  0  0  0  0  0  0  0
   10.3526   15.1634   23.6850 F   0  0  0  0  0  0  0  0  0  0  0  0
   10.1737   14.2700   21.7105 F   0  0  0  0  0  0  0  0  0  0  0  0
    8.4452   16.2952   22.0865 Br  0  0  0  0  0  0  0  0  0  0  0  0
    7.0967   12.7054   25.1910 C   0  0  2  0  0  0  0  0  0  0  0  0
    6.2563   13.0440   26.4365 C   0  0  0  0  0  0  0  0  0  0  0  0
    5.1084   12.0505   26.5868 C   0  0  0  0  0  0  0  0  0  0  0  0
    5.5897   10.6085   26.6037 C   0  0  0  0  0  0  0  0  0  0  0  0
    6.5339   10.2897   25.5458 N   0  0  0  0  0  0  0  0  0  0  0  0
    7.6052   11.2580   25.3241 C   0  0  0  0  0  0  0  0  0  0  0  0
  2  1  1  1
  2  3  1  0
  2  4  1  0
  4  5  2  0
  4  6  1  0
  6  7  1  0
  6  8  1  0
  6  9  1  0
  2 10  1  0
 10 11  1  1
 11 12  1  0
 12 13  1  0
 13 14  1  0
 14 15  1  0
 15 10  1  0
M  END
>  <inchikey>  (412) 
UGMVKJPKQZMZKU-UHFFFAOYSA-N

>  <energy_score>  (412) 
-14.607233

>  <subsites>  (412) 
1 - Active Site

>  <alias>  (412) 
C8176-P325

>  <tags>  (412) 
openbind_a71ev2a_c1_scaffolds,BulkDock Fragalysis export,openbind_a71ev2a_c1_knitwork_impure,fragmenstein_placed

>  <distance_score>  (412) 
0.955279

>  <placement_batch>  (412) 
openbind_a71ev2a_c1_knitwork_impure

>  <name>  (412) 
C8176-P325

>  <ref_mols>  (412) 
A0719a,A4368a

>  <smiles>  (412) 
C[C@](O)(C(=O)C(F)(F)Br)[C@@H]1CCCNC1

>  <HIPPO Compound ID>  (412) 
7115

>  <HIPPO Pose ID>  (412) 
420130

>  <ref_pdb>  (412) 
A0341a

$$$$
C7585-P457
     RDKit          3D

 13 13  0  0  0  0  0  0  0  0999 V2000
    9.3281    8.7280   23.2240 C   0  0  0  0  0  0  0  0  0  0  0  0
    9.2507   10.1762   23.6560 C   0  0  0  0  0  0  0  0  0  0  0  0
    8.1126   10.4113   24.6319 C   0  0  0  0  0  0  0  0  0  0  0  0
    7.9499   12.1494   25.0195 S   0  0  0  0  0  0  0  0  0  0  0  0
    9.2736   12.7155   25.1902 O   0  0  0  0  0  0  0  0  0  0  0  0
    7.0027   12.7713   24.1271 O   0  0  0  0  0  0  0  0  0  0  0  0
    7.3318   12.1014   26.6161 N   0  0  0  0  0  0  0  0  0  0  0  0
    5.9236   12.0034   26.7106 N   0  0  0  0  0  0  0  0  0  0  0  0
    5.4797   12.6045   27.9960 C   0  0  0  0  0  0  0  0  0  0  0  0
    3.9535   12.5339   28.2263 C   0  0  0  0  0  0  0  0  0  0  0  0
    3.2736   11.5223   27.3976 N   0  0  0  0  0  0  0  0  0  0  0  0
    4.1273   10.3163   27.3587 C   0  0  0  0  0  0  0  0  0  0  0  0
    5.4752   10.5847   26.6465 C   0  0  0  0  0  0  0  0  0  0  0  0
  1  2  1  0
  2  3  1  0
  3  4  1  0
  4  5  2  0
  4  6  2  0
  4  7  1  0
  7  8  1  0
  8  9  1  0
  9 10  1  0
 10 11  1  0
 11 12  1  0
 12 13  1  0
 13  8  1  0
M  END
>  <inchikey>  (413) 
ROBQLCHSXQDWEG-UHFFFAOYSA-N

>  <energy_score>  (413) 
-38.363768

>  <subsites>  (413) 
1 - Active Site

>  <alias>  (413) 
C7585-P457

>  <tags>  (413) 
openbind_a71ev2a_c1_scaffolds,BulkDock Fragalysis export,openbind_a71ev2a_c1_knitwork_impure,fragmenstein_placed

>  <distance_score>  (413) 
0.992475

>  <placement_batch>  (413) 
openbind_a71ev2a_c1_knitwork_impure

>  <name>  (413) 
C7585-P457

>  <ref_mols>  (413) 
A4751a,A0719a

>  <smiles>  (413) 
CCCS(=O)(=O)NN1CCNCC1

>  <HIPPO Compound ID>  (413) 
32415

>  <HIPPO Pose ID>  (413) 
420305

>  <ref_pdb>  (413) 
A0341a

$$$$
C12320-P135
     RDKit          3D

 12 12  0  0  0  0  0  0  0  0999 V2000
    9.2818   12.9037   25.1037 C   0  0  0  0  0  0  0  0  0  0  0  0
    9.6018   11.8680   24.0423 C   0  0  0  0  0  0  0  0  0  0  0  0
   10.7569   12.2493   23.1296 C   0  0  0  0  0  0  0  0  0  0  0  0
   10.5285   13.8072   22.3066 S   0  0  0  0  0  0  0  0  0  0  0  0
   10.8339   14.8219   23.2825 O   0  0  0  0  0  0  0  0  0  0  0  0
    9.2164   13.7703   21.6849 O   0  0  0  0  0  0  0  0  0  0  0  0
   11.7367   13.6597   21.1449 N   0  0  0  0  0  0  0  0  0  0  0  0
   12.3556   14.7893   20.6012 C   0  0  0  0  0  0  0  0  0  0  0  0
   12.6091   14.9108   19.1975 C   0  0  0  0  0  0  0  0  0  0  0  0
   13.2693   16.0879   18.9156 C   0  0  0  0  0  0  0  0  0  0  0  0
   13.4991   16.9319   20.3841 S   0  0  0  0  0  0  0  0  0  0  0  0
   12.8394   15.7692   21.3557 N   0  0  0  0  0  0  0  0  0  0  0  0
  1  2  1  0
  2  3  1  0
  3  4  1  0
  4  5  2  0
  4  6  2  0
  4  7  1  0
  7  8  1  0
  8  9  1  0
  9 10  2  0
 10 11  1  0
 11 12  1  0
 12  8  2  0
M  END
>  <inchikey>  (414) 
JWMDCIUJPJCIMA-UHFFFAOYSA-N

>  <energy_score>  (414) 
-28.400387

>  <subsites>  (414) 
1 - Active Site

>  <alias>  (414) 
C12320-P135

>  <tags>  (414) 
openbind_a71ev2a_c1_scaffolds,BulkDock Fragalysis export,openbind_a71ev2a_c1_knitwork_impure,fragmenstein_placed

>  <distance_score>  (414) 
0.87334

>  <placement_batch>  (414) 
openbind_a71ev2a_c1_knitwork_impure

>  <name>  (414) 
C12320-P135

>  <ref_mols>  (414) 
A0719a,A2629a

>  <smiles>  (414) 
CCCS(=O)(=O)Nc1ccsn1

>  <HIPPO Compound ID>  (414) 
1142

>  <HIPPO Pose ID>  (414) 
420571

>  <ref_pdb>  (414) 
A0341a

$$$$
C12323-P135
     RDKit          3D

 12 12  0  0  0  0  0  0  0  0999 V2000
    9.3616   12.9546   25.0769 C   0  0  0  0  0  0  0  0  0  0  0  0
    9.6557   11.8990   24.0276 C   0  0  0  0  0  0  0  0  0  0  0  0
   10.8067   12.2528   23.0976 C   0  0  0  0  0  0  0  0  0  0  0  0
   10.5818   13.8017   22.2547 S   0  0  0  0  0  0  0  0  0  0  0  0
   10.9596   14.8364   23.1841 O   0  0  0  0  0  0  0  0  0  0  0  0
    9.2510   13.7907   21.6760 O   0  0  0  0  0  0  0  0  0  0  0  0
   11.7580   13.6490   21.0560 N   0  0  0  0  0  0  0  0  0  0  0  0
   12.3528   14.7659   20.4277 C   0  0  0  0  0  0  0  0  0  0  0  0
   12.8056   15.9785   21.0451 C   0  0  0  0  0  0  0  0  0  0  0  0
   13.3801   16.9007   20.2696 N   0  0  0  0  0  0  0  0  0  0  0  0
   13.3815   16.3222   18.7180 S   0  0  0  0  0  0  0  0  0  0  0  0
   12.6271   14.8327   19.0783 C   0  0  0  0  0  0  0  0  0  0  0  0
  1  2  1  0
  2  3  1  0
  3  4  1  0
  4  5  2  0
  4  6  2  0
  4  7  1  0
  7  8  1  0
  8  9  1  0
  9 10  2  0
 10 11  1  0
 11 12  1  0
 12  8  2  0
M  END
>  <inchikey>  (415) 
ZNTOHSLRMARLLO-UHFFFAOYSA-N

>  <energy_score>  (415) 
-46.751001

>  <subsites>  (415) 
1 - Active Site

>  <alias>  (415) 
C12323-P135

>  <tags>  (415) 
openbind_a71ev2a_c1_scaffolds,BulkDock Fragalysis export,openbind_a71ev2a_c1_knitwork_impure,fragmenstein_placed

>  <distance_score>  (415) 
0.830206

>  <placement_batch>  (415) 
openbind_a71ev2a_c1_knitwork_impure

>  <name>  (415) 
C12323-P135

>  <ref_mols>  (415) 
A0719a,A2629a

>  <smiles>  (415) 
CCCS(=O)(=O)Nc1cnsc1

>  <HIPPO Compound ID>  (415) 
14910

>  <HIPPO Pose ID>  (415) 
420573

>  <ref_pdb>  (415) 
A0341a

$$$$
C8141-P214
     RDKit          3D

 14 14  0  0  0  0  0  0  0  0999 V2000
   10.8014   15.5873   20.4701 C   0  0  0  0  0  0  0  0  0  0  0  0
    9.6157   14.9298   21.1003 C   0  0  0  0  0  0  0  0  0  0  0  0
    9.5455   14.6232   22.4008 C   0  0  0  0  0  0  0  0  0  0  0  0
    8.3803   13.8818   22.9876 C   0  0  0  0  0  0  0  0  0  0  0  0
    7.4564   13.4856   22.2798 O   0  0  0  0  0  0  0  0  0  0  0  0
    8.4401   13.6455   24.5175 C   0  0  2  0  0  0  0  0  0  0  0  0
    8.1440   14.9791   25.2077 C   0  0  0  0  0  0  0  0  0  0  0  0
    9.7926   13.2983   24.8791 O   0  0  0  0  0  0  0  0  0  0  0  0
    7.5300   12.5230   25.0671 C   0  0  0  0  0  0  0  0  0  0  0  0
    7.7892   11.1503   24.4450 C   0  0  0  0  0  0  0  0  0  0  0  0
    6.9765   10.0737   25.1481 C   0  0  0  0  0  0  0  0  0  0  0  0
    5.5619   10.3775   25.2502 N   0  0  0  0  0  0  0  0  0  0  0  0
    5.2892   11.6821   25.8341 C   0  0  0  0  0  0  0  0  0  0  0  0
    6.0265   12.8106   25.1056 C   0  0  0  0  0  0  0  0  0  0  0  0
  1  2  1  0
  2  3  2  3
  3  4  1  0
  4  5  2  0
  4  6  1  0
  6  7  1  1
  6  8  1  0
  6  9  1  0
  9 10  1  0
 10 11  1  0
 11 12  1  0
 12 13  1  0
 13 14  1  0
 14  9  1  0
M  END
>  <inchikey>  (416) 
YNRBPEHVWJFOKW-UHFFFAOYSA-N

>  <energy_score>  (416) 
-33.555116

>  <subsites>  (416) 
1 - Active Site

>  <alias>  (416) 
C8141-P214

>  <tags>  (416) 
openbind_a71ev2a_c1_scaffolds,BulkDock Fragalysis export,openbind_a71ev2a_c1_knitwork_impure,fragmenstein_placed

>  <distance_score>  (416) 
0.961849

>  <placement_batch>  (416) 
openbind_a71ev2a_c1_knitwork_impure

>  <name>  (416) 
C8141-P214

>  <ref_mols>  (416) 
A0719a,A3550a

>  <smiles>  (416) 
CC=CC(=O)[C@](C)(O)C1CCNCC1

>  <HIPPO Compound ID>  (416) 
2413

>  <HIPPO Pose ID>  (416) 
420883

>  <ref_pdb>  (416) 
A0341a

$$$$
C8142-P214
     RDKit          3D

 12 12  0  0  0  0  0  0  0  0999 V2000
    9.5622   15.2164   21.3463 C   0  0  0  0  0  0  0  0  0  0  0  0
    9.5864   14.6432   22.7382 C   0  0  0  0  0  0  0  0  0  0  0  0
   10.5985   14.7220   23.4342 O   0  0  0  0  0  0  0  0  0  0  0  0
    8.3044   13.9574   23.2067 C   0  0  0  0  0  0  0  0  0  0  0  0
    8.3442   13.6731   24.7056 C   0  0  1  0  0  0  0  0  0  0  0  0
    8.1193   14.8805   25.4368 O   0  0  0  0  0  0  0  0  0  0  0  0
    7.3875   12.5993   25.2497 C   0  0  2  0  0  0  0  0  0  0  0  0
    7.5212   11.2452   24.5731 C   0  0  0  0  0  0  0  0  0  0  0  0
    6.7474   10.1993   25.3572 C   0  0  0  0  0  0  0  0  0  0  0  0
    5.3550   10.6312   25.8024 C   0  0  0  0  0  0  0  0  0  0  0  0
    5.2475   12.0079   26.2817 N   0  0  0  0  0  0  0  0  0  0  0  0
    5.9108   12.9695   25.3883 C   0  0  0  0  0  0  0  0  0  0  0  0
  1  2  1  0
  2  3  2  0
  2  4  1  0
  4  5  1  0
  5  6  1  1
  5  7  1  0
  7  8  1  6
  8  9  1  0
  9 10  1  0
 10 11  1  0
 11 12  1  0
 12  7  1  0
M  END
>  <inchikey>  (417) 
ZGJROAZBUZCTHO-UHFFFAOYSA-N

>  <energy_score>  (417) 
-29.939681

>  <subsites>  (417) 
1 - Active Site

>  <alias>  (417) 
C8142-P214

>  <tags>  (417) 
openbind_a71ev2a_c1_scaffolds,BulkDock Fragalysis export,openbind_a71ev2a_c1_knitwork_impure,fragmenstein_placed

>  <distance_score>  (417) 
0.986388

>  <placement_batch>  (417) 
openbind_a71ev2a_c1_knitwork_impure

>  <name>  (417) 
C8142-P214

>  <ref_mols>  (417) 
A0719a,A3550a

>  <smiles>  (417) 
CC(=O)C[C@@H](O)[C@@H]1CCCNC1

>  <HIPPO Compound ID>  (417) 
8876

>  <HIPPO Pose ID>  (417) 
420884

>  <ref_pdb>  (417) 
A0341a

$$$$
C1304-P208
     RDKit          3D

 12 12  0  0  0  0  0  0  0  0999 V2000
    6.5175   13.9754   25.6207 O   0  0  0  0  0  0  0  0  0  0  0  0
    7.5042   13.6010   25.1303 C   0  0  0  0  0  0  0  0  0  0  0  0
    8.6891   14.5188   24.8774 C   0  0  0  0  0  0  0  0  0  0  0  0
    8.8867   14.7905   23.3838 C   0  0  0  0  0  0  0  0  0  0  0  0
    9.7443   15.9526   23.1564 N   0  0  0  0  0  0  0  0  0  0  0  0
   11.1332   15.8075   23.6197 C   0  0  0  0  0  0  0  0  0  0  0  0
   12.0466   14.9715   22.7023 C   0  0  0  0  0  0  0  0  0  0  0  0
   12.0574   15.4784   21.3344 N   0  0  0  0  0  0  0  0  0  0  0  0
   10.6873   15.5513   20.8089 C   0  0  0  0  0  0  0  0  0  0  0  0
    9.7499   16.3664   21.7294 C   0  0  0  0  0  0  0  0  0  0  0  0
    7.8901   12.2082   24.6042 N   0  0  0  0  0  0  0  0  0  0  0  0
    7.2055   11.0076   24.6547 O   0  0  0  0  0  0  0  0  0  0  0  0
  1  2  2  0
  2  3  1  0
  3  4  1  0
  4  5  1  0
  5  6  1  0
  6  7  1  0
  7  8  1  0
  8  9  1  0
  9 10  1  0
  2 11  1  0
 11 12  1  0
 10  5  1  0
M  END
>  <inchikey>  (418) 
URQCIPKMHTUWBP-UHFFFAOYSA-N

>  <energy_score>  (418) 
-42.389088

>  <subsites>  (418) 
1 - Active Site

>  <alias>  (418) 
C1304-P208

>  <tags>  (418) 
openbind_a71ev2a_c1_scaffolds,BulkDock Fragalysis export,openbind_a71ev2a_c1_knitwork_impure,fragmenstein_placed

>  <distance_score>  (418) 
0.950992

>  <placement_batch>  (418) 
openbind_a71ev2a_c1_knitwork_impure

>  <name>  (418) 
C1304-P208

>  <ref_mols>  (418) 
A3706b,A1080a

>  <smiles>  (418) 
O=C(CCN1CCNCC1)NO

>  <HIPPO Compound ID>  (418) 
4769

>  <HIPPO Pose ID>  (418) 
420989

>  <ref_pdb>  (418) 
A0341a

$$$$
C7596-P190
     RDKit          3D

 13 13  0  0  0  0  0  0  0  0999 V2000
   12.3469   16.6422   22.0873 C   0  0  0  0  0  0  0  0  0  0  0  0
   11.6431   15.9598   23.2377 C   0  0  0  0  0  0  0  0  0  0  0  0
   10.6260   14.9697   22.7039 C   0  0  0  0  0  0  0  0  0  0  0  0
   10.0684   13.8933   23.9994 S   0  0  0  0  0  0  0  0  0  0  0  0
   11.2087   13.3070   24.6686 O   0  0  0  0  0  0  0  0  0  0  0  0
    9.0123   14.5170   24.7624 O   0  0  0  0  0  0  0  0  0  0  0  0
    9.3679   12.6469   23.1003 N   0  0  0  0  0  0  0  0  0  0  0  0
    8.7900   11.6009   23.9747 C   0  0  0  0  0  0  0  0  0  0  0  0
    9.0089   10.2348   23.3589 C   0  0  0  0  0  0  0  0  0  0  0  0
    8.1591    9.1314   23.9592 C   0  0  0  0  0  0  0  0  0  0  0  0
    6.9021    9.4990   24.5918 N   0  0  0  0  0  0  0  0  0  0  0  0
    6.8566   10.7932   25.2382 C   0  0  0  0  0  0  0  0  0  0  0  0
    7.3526   11.8957   24.3249 C   0  0  0  0  0  0  0  0  0  0  0  0
  1  2  1  0
  2  3  1  0
  3  4  1  0
  4  5  2  0
  4  6  2  0
  4  7  1  0
  7  8  1  0
  8  9  1  0
  9 10  1  0
 10 11  1  0
 11 12  1  0
 12 13  1  0
 13  8  1  0
M  END
>  <inchikey>  (419) 
HMFFHCKOIQTSMA-UHFFFAOYSA-N

>  <energy_score>  (419) 
-43.746147

>  <subsites>  (419) 
1 - Active Site

>  <alias>  (419) 
C7596-P190

>  <tags>  (419) 
openbind_a71ev2a_c1_scaffolds,BulkDock Fragalysis export,openbind_a71ev2a_c1_knitwork_impure,fragmenstein_placed

>  <distance_score>  (419) 
0.943838

>  <placement_batch>  (419) 
openbind_a71ev2a_c1_knitwork_impure

>  <name>  (419) 
C7596-P190

>  <ref_mols>  (419) 
A0719a,A3509a

>  <smiles>  (419) 
CCCS(=O)(=O)NC1CCNCC1

>  <HIPPO Compound ID>  (419) 
7596

>  <HIPPO Pose ID>  (419) 
421273

>  <ref_pdb>  (419) 
A0341a

$$$$
C7644-P190
     RDKit          3D

 13 13  0  0  0  0  0  0  0  0999 V2000
   12.5994   15.9276   23.0140 C   0  0  0  0  0  0  0  0  0  0  0  0
   11.1514   16.2520   23.3130 C   0  0  0  0  0  0  0  0  0  0  0  0
   10.2272   15.1350   22.8875 C   0  0  0  0  0  0  0  0  0  0  0  0
   10.1055   13.8004   24.0587 S   0  0  0  0  0  0  0  0  0  0  0  0
   11.4101   13.2989   24.4142 O   0  0  0  0  0  0  0  0  0  0  0  0
    9.1584   14.1888   25.0774 O   0  0  0  0  0  0  0  0  0  0  0  0
    9.4305   12.6858   23.0230 N   0  0  0  0  0  0  0  0  0  0  0  0
    8.5130   11.6314   23.4128 C   0  0  2  0  0  0  0  0  0  0  0  0
    7.6406   11.8850   24.5833 C   0  0  0  0  0  0  0  0  0  0  0  0
    7.0683   10.8792   25.2472 C   0  0  0  0  0  0  0  0  0  0  0  0
    7.2699    9.4580   24.8673 C   0  0  0  0  0  0  0  0  0  0  0  0
    8.2999    9.1315   23.7884 C   0  0  0  0  0  0  0  0  0  0  0  0
    9.2067   10.2765   23.3791 C   0  0  0  0  0  0  0  0  0  0  0  0
  1  2  1  0
  2  3  1  0
  3  4  1  0
  4  5  2  0
  4  6  2  0
  4  7  1  0
  8  7  1  1
  8  9  1  0
  9 10  2  0
 10 11  1  0
 11 12  1  0
 12 13  1  0
 13  8  1  0
M  END
>  <inchikey>  (420) 
OBYGXQCROQSNDR-UHFFFAOYSA-N

>  <energy_score>  (420) 
-24.087084

>  <subsites>  (420) 
1 - Active Site

>  <alias>  (420) 
C7644-P190

>  <tags>  (420) 
openbind_a71ev2a_c1_scaffolds,BulkDock Fragalysis export,openbind_a71ev2a_c1_knitwork_impure,fragmenstein_placed

>  <distance_score>  (420) 
0.926346

>  <placement_batch>  (420) 
openbind_a71ev2a_c1_knitwork_impure

>  <name>  (420) 
C7644-P190

>  <ref_mols>  (420) 
A0719a,A3509a

>  <smiles>  (420) 
CCCS(=O)(=O)N[C@@H]1C=CCCC1

>  <HIPPO Compound ID>  (420) 
3419

>  <HIPPO Pose ID>  (420) 
421299

>  <ref_pdb>  (420) 
A0341a

$$$$
C7652-P190
     RDKit          3D

 12 12  0  0  0  0  0  0  0  0999 V2000
   12.1378   16.1652   22.9176 C   0  0  0  0  0  0  0  0  0  0  0  0
   10.6229   16.0347   22.8338 C   0  0  0  0  0  0  0  0  0  0  0  0
   10.1626   14.5890   22.6740 C   0  0  0  0  0  0  0  0  0  0  0  0
    9.8695   13.8031   24.2557 S   0  0  0  0  0  0  0  0  0  0  0  0
   10.9888   14.0911   25.1226 O   0  0  0  0  0  0  0  0  0  0  0  0
    8.5122   14.0632   24.6760 O   0  0  0  0  0  0  0  0  0  0  0  0
   10.0130   12.1865   23.8905 N   0  0  0  0  0  0  0  0  0  0  0  0
    8.8625   11.3865   23.5026 C   0  0  2  0  0  0  0  0  0  0  0  0
    7.9052   11.1296   24.6168 C   0  0  0  0  0  0  0  0  0  0  0  0
    7.5837    9.8356   24.7220 C   0  0  0  0  0  0  0  0  0  0  0  0
    8.3377    9.0019   23.7476 C   0  0  0  0  0  0  0  0  0  0  0  0
    9.3563    9.9697   23.1781 C   0  0  0  0  0  0  0  0  0  0  0  0
  1  2  1  0
  2  3  1  0
  3  4  1  0
  4  5  2  0
  4  6  2  0
  4  7  1  0
  8  7  1  1
  8  9  1  0
  9 10  2  0
 10 11  1  0
 11 12  1  0
 12  8  1  0
M  END
>  <inchikey>  (421) 
BGLQMBYCJQNPGY-UHFFFAOYSA-N

>  <energy_score>  (421) 
-17.75776

>  <subsites>  (421) 
1 - Active Site

>  <alias>  (421) 
C7652-P190

>  <tags>  (421) 
openbind_a71ev2a_c1_scaffolds,BulkDock Fragalysis export,openbind_a71ev2a_c1_knitwork_impure,fragmenstein_placed

>  <distance_score>  (421) 
0.975656

>  <placement_batch>  (421) 
openbind_a71ev2a_c1_knitwork_impure

>  <name>  (421) 
C7652-P190

>  <ref_mols>  (421) 
A0719a,A3509a

>  <smiles>  (421) 
CCCS(=O)(=O)N[C@@H]1C=CCC1

>  <HIPPO Compound ID>  (421) 
84716

>  <HIPPO Pose ID>  (421) 
421305

>  <ref_pdb>  (421) 
A0341a

$$$$
C1783-P270
     RDKit          3D

 15 17  0  0  0  0  0  0  0  0999 V2000
   11.5273   15.5491   21.1078 C   0  0  0  0  0  0  0  0  0  0  0  0
   11.7411   15.2166   22.5765 C   0  0  0  0  0  0  0  0  0  0  0  0
   10.6824   15.8947   23.4353 C   0  0  0  0  0  0  0  0  0  0  0  0
    9.2497   15.6771   22.9230 C   0  0  2  0  0  0  0  0  0  0  0  0
    8.7367   14.3102   23.3248 C   0  0  0  0  0  0  0  0  0  0  0  0
    9.3547   13.1681   23.1066 N   0  0  0  0  0  0  0  0  0  0  0  0
    8.6914   12.1295   23.7130 C   0  0  0  0  0  0  0  0  0  0  0  0
    7.6104   12.5065   24.4673 C   0  0  0  0  0  0  0  0  0  0  0  0
    7.2847   14.1673   24.2273 S   0  0  0  0  0  0  0  0  0  0  0  0
    6.7878   11.7047   25.3835 C   0  0  0  0  0  0  0  0  0  0  0  0
    7.0779    9.9186   25.3540 S   0  0  0  0  0  0  0  0  0  0  0  0
    8.3213    9.6444   24.0417 C   0  0  0  0  0  0  0  0  0  0  0  0
    9.2277   10.7638   23.5708 C   0  0  0  0  0  0  0  0  0  0  0  0
    9.1035   15.9607   21.4856 N   0  0  0  0  0  0  0  0  0  0  0  0
   10.0967   15.2519   20.6721 C   0  0  0  0  0  0  0  0  0  0  0  0
  1  2  1  0
  2  3  1  0
  3  4  1  0
  4  5  1  6
  5  6  2  0
  6  7  1  0
  7  8  2  0
  8  9  1  0
  8 10  1  0
 10 11  1  0
 11 12  1  0
 12 13  1  0
  4 14  1  0
 14 15  1  0
 15  1  1  0
  9  5  1  0
 13  7  1  0
M  END
>  <inchikey>  (422) 
JRLTZXBVYPPMPH-UHFFFAOYSA-N

>  <energy_score>  (422) 
-61.441535

>  <subsites>  (422) 
1 - Active Site

>  <alias>  (422) 
C1783-P270

>  <tags>  (422) 
openbind_a71ev2a_c1_scaffolds,BulkDock Fragalysis export,openbind_a71ev2a_c1_knitwork_impure,fragmenstein_placed

>  <distance_score>  (422) 
0.95555

>  <placement_batch>  (422) 
openbind_a71ev2a_c1_knitwork_impure

>  <name>  (422) 
C1783-P270

>  <ref_mols>  (422) 
A3623a,A4020a

>  <smiles>  (422) 
C1CC[C@H](c2nc3c(s2)CSCC3)NC1

>  <HIPPO Compound ID>  (422) 
8426

>  <HIPPO Pose ID>  (422) 
422185

>  <ref_pdb>  (422) 
A0341a

$$$$
C1805-P270
     RDKit          3D

 15 17  0  0  0  0  0  0  0  0999 V2000
   11.7377   15.2463   22.7089 C   0  0  0  0  0  0  0  0  0  0  0  0
   10.6379   15.9002   23.5350 C   0  0  0  0  0  0  0  0  0  0  0  0
    9.2394   15.7052   22.9336 C   0  0  0  0  0  0  0  0  0  0  0  0
    8.7039   14.3486   23.3023 C   0  0  0  0  0  0  0  0  0  0  0  0
    9.3050   13.2091   23.0505 N   0  0  0  0  0  0  0  0  0  0  0  0
    8.6672   12.1699   23.6830 C   0  0  0  0  0  0  0  0  0  0  0  0
    7.5930   12.5418   24.4495 C   0  0  0  0  0  0  0  0  0  0  0  0
    7.2620   14.2033   24.2165 S   0  0  0  0  0  0  0  0  0  0  0  0
    6.7896   11.7366   25.3805 C   0  0  0  0  0  0  0  0  0  0  0  0
    7.0895    9.9514   25.3514 S   0  0  0  0  0  0  0  0  0  0  0  0
    8.3359    9.6836   24.0397 C   0  0  0  0  0  0  0  0  0  0  0  0
    9.2268   10.8120   23.5596 C   0  0  0  0  0  0  0  0  0  0  0  0
    9.2298   15.9526   21.4224 C   0  0  0  0  0  0  0  0  0  0  0  0
   10.4138   15.3120   20.7055 C   0  0  0  0  0  0  0  0  0  0  0  0
   11.6835   15.6829   21.3215 N   0  0  0  0  0  0  0  0  0  0  0  0
  1  2  1  0
  2  3  1  0
  3  4  1  0
  4  5  2  0
  5  6  1  0
  6  7  2  0
  7  8  1  0
  7  9  1  0
  9 10  1  0
 10 11  1  0
 11 12  1  0
  3 13  1  0
 13 14  1  0
 14 15  1  0
 15  1  1  0
  8  4  1  0
 12  6  1  0
M  END
>  <inchikey>  (423) 
NDFBKSVVKUASCT-UHFFFAOYSA-N

>  <energy_score>  (423) 
-76.856495

>  <subsites>  (423) 
1 - Active Site

>  <alias>  (423) 
C1805-P270

>  <tags>  (423) 
openbind_a71ev2a_c1_scaffolds,BulkDock Fragalysis export,openbind_a71ev2a_c1_knitwork_impure,fragmenstein_placed

>  <distance_score>  (423) 
0.912782

>  <placement_batch>  (423) 
openbind_a71ev2a_c1_knitwork_impure

>  <name>  (423) 
C1805-P270

>  <ref_mols>  (423) 
A3623a,A4020a

>  <smiles>  (423) 
C1CC(c2nc3c(s2)CSCC3)CCN1

>  <HIPPO Compound ID>  (423) 
18433

>  <HIPPO Pose ID>  (423) 
422187

>  <ref_pdb>  (423) 
A0341a

$$$$
C2414-P440
     RDKit          3D

 16 16  0  0  0  0  0  0  0  0999 V2000
    9.5921    9.1322   22.9384 C   0  0  0  0  0  0  0  0  0  0  0  0
    9.2171    9.3670   24.0508 C   0  0  0  0  0  0  0  0  0  0  0  0
    8.6979    9.9096   25.3042 C   0  0  0  0  0  0  0  0  0  0  0  0
    8.0032   11.2327   25.0092 C   0  0  0  0  0  0  0  0  0  0  0  0
    8.9813   12.2805   24.4731 C   0  0  0  0  0  0  0  0  0  0  0  0
   10.1948   12.1258   24.6775 O   0  0  0  0  0  0  0  0  0  0  0  0
    8.3767   13.5914   23.8093 C   0  0  1  0  0  0  0  0  0  0  0  0
    7.0860   13.2179   23.0532 C   0  0  0  0  0  0  0  0  0  0  0  0
    8.0144   14.5307   25.0009 C   0  0  0  0  0  0  0  0  0  0  0  0
    7.2632   15.8046   24.6442 C   0  0  0  0  0  0  0  0  0  0  0  0
    9.4126   14.1111   22.8756 N   0  0  0  0  0  0  0  0  0  0  0  0
   10.5571   14.7740   23.5096 C   0  0  0  0  0  0  0  0  0  0  0  0
   11.7418   14.7712   22.5544 C   0  0  0  0  0  0  0  0  0  0  0  0
   11.4036   15.5422   21.2929 C   0  0  0  0  0  0  0  0  0  0  0  0
   10.1406   14.9872   20.6591 C   0  0  0  0  0  0  0  0  0  0  0  0
    8.9949   14.8318   21.6668 C   0  0  0  0  0  0  0  0  0  0  0  0
  1  2  3  0
  2  3  1  0
  3  4  1  0
  4  5  1  0
  5  6  2  0
  5  7  1  0
  7  8  1  6
  7  9  1  0
  9 10  1  0
  7 11  1  0
 11 12  1  0
 12 13  1  0
 13 14  1  0
 14 15  1  0
 15 16  1  0
 16 11  1  0
M  END
>  <inchikey>  (424) 
AOQJBHHWKYZXFO-UHFFFAOYSA-N

>  <energy_score>  (424) 
-58.716581

>  <subsites>  (424) 
1 - Active Site

>  <alias>  (424) 
C2414-P440

>  <tags>  (424) 
openbind_a71ev2a_c1_scaffolds,BulkDock Fragalysis export,openbind_a71ev2a_c1_knitwork_impure,fragmenstein_placed

>  <distance_score>  (424) 
0.80101

>  <placement_batch>  (424) 
openbind_a71ev2a_c1_knitwork_impure

>  <name>  (424) 
C2414-P440

>  <ref_mols>  (424) 
A4707a,A1775a

>  <smiles>  (424) 
C#CCCC(=O)[C@@](C)(CC)N1CCCCC1

>  <HIPPO Compound ID>  (424) 
2365

>  <HIPPO Pose ID>  (424) 
423304

>  <ref_pdb>  (424) 
A0341a

$$$$
C7479-P440
     RDKit          3D

 23 24  0  0  0  0  0  0  0  0999 V2000
    3.4743   12.6230   18.0669 C   0  0  0  0  0  0  0  0  0  0  0  0
    3.2909   12.6082   19.5817 C   0  0  0  0  0  0  0  0  0  0  0  0
    2.2430   11.5807   19.9737 C   0  0  0  0  0  0  0  0  0  0  0  0
    2.9338   13.9418   20.0964 C   0  0  0  0  0  0  0  0  0  0  0  0
    1.9596   14.5988   19.4042 O   0  0  0  0  0  0  0  0  0  0  0  0
    1.8527   15.7843   20.0355 C   0  0  0  0  0  0  0  0  0  0  0  0
    2.6413   15.9351   21.0764 N   0  0  0  0  0  0  0  0  0  0  0  0
    3.3235   14.7328   21.1622 C   0  0  0  0  0  0  0  0  0  0  0  0
    4.2738   14.4353   22.2905 C   0  0  0  0  0  0  0  0  0  0  0  0
    5.5201   15.1532   22.0616 N   0  0  0  0  0  0  0  0  0  0  0  0
    6.9706   14.3908   22.4093 S   0  0  0  0  0  0  0  0  0  0  0  0
    6.7751   13.0644   21.8358 O   0  0  0  0  0  0  0  0  0  0  0  0
    7.9296   15.2142   21.6989 O   0  0  0  0  0  0  0  0  0  0  0  0
    6.9010   14.5404   23.9334 N   0  0  0  0  0  0  0  0  0  0  0  0
    8.2567   14.3675   24.6362 S   0  0  2  0  0  0  0  0  0  0  0  0
    8.0083   15.0155   26.2787 C   0  0  0  0  0  0  0  0  0  0  0  0
    9.5144   14.9530   24.2108 O   0  0  0  0  0  0  0  0  0  0  0  0
    8.5920   12.6358   24.9827 C   0  0  0  0  0  0  0  0  0  0  0  0
    9.3466   11.9524   23.8377 C   0  0  0  0  0  0  0  0  0  0  0  0
    9.6879   10.5073   24.1879 C   0  0  0  0  0  0  0  0  0  0  0  0
    8.4623    9.7176   24.6200 C   0  0  0  0  0  0  0  0  0  0  0  0
    7.6831   10.4100   25.7284 C   0  0  0  0  0  0  0  0  0  0  0  0
    7.3403   11.8512   25.3704 C   0  0  0  0  0  0  0  0  0  0  0  0
  1  2  1  0
  2  3  1  0
  2  4  1  0
  4  5  1  0
  5  6  1  0
  6  7  2  0
  7  8  1  0
  8  9  1  0
  9 10  1  0
 10 11  1  0
 11 12  2  0
 11 13  2  0
 11 14  1  0
 14 15  2  0
 15 16  1  1
 15 17  2  0
 15 18  1  0
 18 19  1  0
 19 20  1  0
 20 21  1  0
 21 22  1  0
 22 23  1  0
  8  4  2  0
 23 18  1  0
M  END
>  <inchikey>  (425) 
GFTCXYDTVIIUSE-UHFFFAOYSA-N

>  <energy_score>  (425) 
-244.674125

>  <subsites>  (425) 
1 - Active Site

>  <alias>  (425) 
C7479-P440

>  <tags>  (425) 
openbind_a71ev2a_c1_scaffolds,BulkDock Fragalysis export,openbind_a71ev2a_c1_knitwork_impure,fragmenstein_placed

>  <distance_score>  (425) 
0.827313

>  <placement_batch>  (425) 
openbind_a71ev2a_c1_knitwork_impure

>  <name>  (425) 
C7479-P440

>  <ref_mols>  (425) 
A3623a,A4707a

>  <smiles>  (425) 
CC(C)c1ocnc1CNS(=O)(=O)N=[S@](C)(=O)C1CCCCC1

>  <HIPPO Compound ID>  (425) 
10575

>  <HIPPO Pose ID>  (425) 
423382

>  <ref_pdb>  (425) 
A0341a

$$$$
C26145-P124
     RDKit          3D

 22 23  0  0  0  0  0  0  0  0999 V2000
    2.3282   10.5350   29.1070 C   0  0  0  0  0  0  0  0  0  0  0  0
    1.9185   11.9981   29.3460 C   0  0  0  0  0  0  0  0  0  0  0  0
    1.1100   12.0478   30.6463 C   0  0  0  0  0  0  0  0  0  0  0  0
    3.1758   12.9310   29.3316 C   0  0  0  0  0  0  0  0  0  0  0  0
    3.7993   12.9144   27.9114 C   0  0  0  0  0  0  0  0  0  0  0  0
    3.1600   12.8753   26.9366 O   0  0  0  0  0  0  0  0  0  0  0  0
    5.3335   13.0338   28.1022 N   0  0  0  0  0  0  0  0  0  0  0  0
    6.3877   13.2254   27.1320 C   0  0  0  0  0  0  0  0  0  0  0  0
    6.6534   12.1342   26.0267 C   0  0  2  0  0  0  0  0  0  0  0  0
    6.1893   10.7830   26.5425 C   0  0  0  0  0  0  0  0  0  0  0  0
    8.1017   12.2299   25.6430 N   0  0  0  0  0  0  0  0  0  0  0  0
    8.5179   13.5964   25.2302 C   0  0  0  0  0  0  0  0  0  0  0  0
    9.9198   13.5326   24.6576 C   0  0  0  0  0  0  0  0  0  0  0  0
    9.9377   12.1268   24.1987 C   0  0  0  0  0  0  0  0  0  0  0  0
   10.8850   11.5465   23.3611 C   0  0  0  0  0  0  0  0  0  0  0  0
   10.7818   10.1926   23.0968 C   0  0  0  0  0  0  0  0  0  0  0  0
    9.7449    9.4656   23.6736 C   0  0  0  0  0  0  0  0  0  0  0  0
    8.8029   10.0828   24.5169 C   0  0  0  0  0  0  0  0  0  0  0  0
    8.8706   11.4289   24.7898 C   0  0  0  0  0  0  0  0  0  0  0  0
    2.8723   14.3981   29.7924 C   0  0  0  0  0  0  0  0  0  0  0  0
    3.5941   15.5111   29.0161 C   0  0  0  0  0  0  0  0  0  0  0  0
    3.2154   14.5797   31.2795 C   0  0  0  0  0  0  0  0  0  0  0  0
  1  2  1  0
  2  3  1  0
  2  4  1  0
  4  5  1  0
  5  6  2  0
  5  7  1  0
  7  8  1  0
  8  9  1  0
  9 10  1  1
  9 11  1  0
 11 12  1  0
 12 13  1  0
 13 14  1  0
 14 15  2  0
 15 16  1  0
 16 17  2  0
 17 18  1  0
 18 19  2  0
  4 20  1  0
 20 21  1  0
 20 22  1  0
 19 11  1  0
 19 14  1  0
M  END
>  <inchikey>  (426) 
AKWDCTOUIAETMB-UHFFFAOYSA-N

>  <energy_score>  (426) 
-21.758164

>  <subsites>  (426) 
1 - Active Site

>  <alias>  (426) 
C26145-P124

>  <tags>  (426) 
openbind_a71ev2a_c1_scaffolds,BulkDock Fragalysis export,openbind_a71ev2a_c1_knitwork_impure,fragmenstein_placed

>  <distance_score>  (426) 
0.986611

>  <placement_batch>  (426) 
openbind_a71ev2a_c1_knitwork_impure

>  <name>  (426) 
C26145-P124

>  <ref_mols>  (426) 
A2846a,A1778a

>  <smiles>  (426) 
CC(C)C(C(=O)NC[C@H](C)N1CCc2ccccc21)C(C)C

>  <HIPPO Compound ID>  (426) 
5151

>  <HIPPO Pose ID>  (426) 
423518

>  <ref_pdb>  (426) 
A0341a

$$$$
C2376-P151
     RDKit          3D

 14 14  0  0  0  0  0  0  0  0999 V2000
   12.1072   15.2678   22.6079 C   0  0  0  0  0  0  0  0  0  0  0  0
   10.9793   15.0582   23.5963 C   0  0  0  0  0  0  0  0  0  0  0  0
    9.7654   14.4767   22.8783 C   0  0  0  0  0  0  0  0  0  0  0  0
    8.4892   14.5098   23.7266 C   0  0  1  0  0  0  0  0  0  0  0  0
    7.2827   14.3691   22.7903 C   0  0  0  0  0  0  0  0  0  0  0  0
    8.4364   13.5529   24.9691 C   0  0  2  0  0  0  0  0  0  0  0  0
    7.6261   14.2582   26.0725 C   0  0  0  0  0  0  0  0  0  0  0  0
    9.6923   13.4463   25.5160 F   0  0  0  0  0  0  0  0  0  0  0  0
    7.9371   12.1000   24.6625 C   0  0  0  0  0  0  0  0  0  0  0  0
    7.2815   11.4069   25.8673 C   0  0  0  0  0  0  0  0  0  0  0  0
    7.0789    9.9147   25.7141 C   0  0  0  0  0  0  0  0  0  0  0  0
    8.2891    9.2616   25.2841 N   0  0  0  0  0  0  0  0  0  0  0  0
    8.8687    9.7577   24.0541 C   0  0  0  0  0  0  0  0  0  0  0  0
    9.0659   11.2648   24.0364 C   0  0  0  0  0  0  0  0  0  0  0  0
  1  2  1  0
  2  3  1  0
  3  4  1  0
  4  5  1  6
  4  6  1  0
  6  7  1  1
  6  8  1  0
  6  9  1  0
  9 10  1  0
 10 11  1  0
 11 12  1  0
 12 13  1  0
 13 14  1  0
 14  9  1  0
M  END
>  <inchikey>  (427) 
ZCLPDSDKUWWASP-UHFFFAOYSA-N

>  <energy_score>  (427) 
-35.381754

>  <subsites>  (427) 
1 - Active Site

>  <alias>  (427) 
C2376-P151

>  <tags>  (427) 
openbind_a71ev2a_c1_scaffolds,BulkDock Fragalysis export,openbind_a71ev2a_c1_knitwork_impure,fragmenstein_placed

>  <distance_score>  (427) 
0.986968

>  <placement_batch>  (427) 
openbind_a71ev2a_c1_knitwork_impure

>  <name>  (427) 
C2376-P151

>  <ref_mols>  (427) 
A1779a,A3194a

>  <smiles>  (427) 
CCC[C@@H](C)[C@](C)(F)C1CCNCC1

>  <HIPPO Compound ID>  (427) 
35516

>  <HIPPO Pose ID>  (427) 
423599

>  <ref_pdb>  (427) 
A0341a

$$$$
C2384-P151
     RDKit          3D

 15 15  0  0  0  0  0  0  0  0999 V2000
   11.7339   14.9615   22.4211 C   0  0  0  0  0  0  0  0  0  0  0  0
   10.7571   15.7449   23.2811 C   0  0  0  0  0  0  0  0  0  0  0  0
    9.2754   15.5098   22.9762 C   0  0  1  0  0  0  0  0  0  0  0  0
    8.9650   15.9792   21.5511 C   0  0  0  0  0  0  0  0  0  0  0  0
    8.7233   14.0886   23.1736 C   0  0  0  0  0  0  0  0  0  0  0  0
    8.1583   13.5179   22.2288 O   0  0  0  0  0  0  0  0  0  0  0  0
    8.7514   13.4060   24.5715 C   0  0  0  0  0  0  0  0  0  0  0  0
    7.8466   14.1850   25.5413 C   0  0  0  0  0  0  0  0  0  0  0  0
   10.1536   13.3755   25.1689 C   0  0  0  0  0  0  0  0  0  0  0  0
    8.2429   11.9240   24.3529 C   0  0  2  0  0  0  0  0  0  0  0  0
    7.6483   11.2184   25.5738 C   0  0  0  0  0  0  0  0  0  0  0  0
    7.4265    9.7214   25.4001 C   0  0  0  0  0  0  0  0  0  0  0  0
    8.4074    9.0346   24.4529 C   0  0  0  0  0  0  0  0  0  0  0  0
    9.6076    9.8089   24.2543 N   0  0  0  0  0  0  0  0  0  0  0  0
    9.3050   11.0699   23.6118 C   0  0  0  0  0  0  0  0  0  0  0  0
  1  2  1  0
  2  3  1  0
  3  4  1  6
  3  5  1  0
  5  6  2  0
  5  7  1  0
  7  8  1  0
  7  9  1  0
 10  7  1  1
 10 11  1  0
 11 12  1  0
 12 13  1  0
 13 14  1  0
 14 15  1  0
 15 10  1  0
M  END
>  <inchikey>  (428) 
DURBHPZRTCPDPC-UHFFFAOYSA-N

>  <energy_score>  (428) 
-40.030997

>  <subsites>  (428) 
1 - Active Site

>  <alias>  (428) 
C2384-P151

>  <tags>  (428) 
openbind_a71ev2a_c1_scaffolds,BulkDock Fragalysis export,openbind_a71ev2a_c1_knitwork_impure,fragmenstein_placed

>  <distance_score>  (428) 
0.959978

>  <placement_batch>  (428) 
openbind_a71ev2a_c1_knitwork_impure

>  <name>  (428) 
C2384-P151

>  <ref_mols>  (428) 
A1779a,A3194a

>  <smiles>  (428) 
CC[C@@H](C)C(=O)C(C)(C)[C@@H]1CCCNC1

>  <HIPPO Compound ID>  (428) 
79657

>  <HIPPO Pose ID>  (428) 
423607

>  <ref_pdb>  (428) 
A0341a

$$$$
C3219-P551
     RDKit          3D

 22 24  0  0  0  0  0  0  0  0999 V2000
   10.5413   15.4650   29.7677 O   0  0  0  0  0  0  0  0  0  0  0  0
    9.9988   15.9302   28.7865 C   0  0  0  0  0  0  0  0  0  0  0  0
    8.5621   15.8798   28.2496 C   0  0  0  0  0  0  0  0  0  0  0  0
    9.0869   16.5743   26.9695 C   0  0  0  0  0  0  0  0  0  0  0  0
    9.0862   15.7099   25.7949 N   0  0  0  0  0  0  0  0  0  0  0  0
    8.1166   15.6583   24.5799 C   0  0  0  0  0  0  0  0  0  0  0  0
    7.1277   16.2486   24.3740 O   0  0  0  0  0  0  0  0  0  0  0  0
    8.6507   14.5864   23.5635 C   0  0  2  0  0  0  0  0  0  0  0  0
    8.5694   13.1297   24.0336 C   0  0  0  0  0  0  0  0  0  0  0  0
    9.3826   12.1357   23.4560 C   0  0  0  0  0  0  0  0  0  0  0  0
    9.2196   10.7898   23.7811 C   0  0  0  0  0  0  0  0  0  0  0  0
    8.2382   10.4141   24.6889 C   0  0  0  0  0  0  0  0  0  0  0  0
    7.4170   11.3747   25.2682 C   0  0  0  0  0  0  0  0  0  0  0  0
    7.5736   12.7208   24.9358 C   0  0  0  0  0  0  0  0  0  0  0  0
    9.9307   14.9475   22.9130 N   0  0  0  0  0  0  0  0  0  0  0  0
    9.8235   15.6376   21.6251 C   0  0  0  0  0  0  0  0  0  0  0  0
   11.0744   15.5351   20.7715 C   0  0  0  0  0  0  0  0  0  0  0  0
   12.2716   15.9555   21.5973 C   0  0  0  0  0  0  0  0  0  0  0  0
   12.3989   15.0379   22.7918 C   0  0  0  0  0  0  0  0  0  0  0  0
   11.1323   14.8851   23.5991 C   0  0  0  0  0  0  0  0  0  0  0  0
   11.2078   14.6081   24.7998 O   0  0  0  0  0  0  0  0  0  0  0  0
   10.4858   16.7812   27.6056 C   0  0  0  0  0  0  0  0  0  0  0  0
  1  2  2  0
  2  3  1  0
  3  4  1  0
  4  5  1  0
  5  6  1  0
  6  7  2  0
  6  8  1  0
  8  9  1  0
  9 10  2  0
 10 11  1  0
 11 12  2  0
 12 13  1  0
 13 14  2  0
  8 15  1  1
 15 16  1  0
 16 17  1  0
 17 18  1  0
 18 19  1  0
 19 20  1  0
 20 21  2  0
  4 22  1  0
 22  2  1  0
 14  9  1  0
 20 15  1  0
M  END
>  <inchikey>  (429) 
BUOXSSFHPANDGR-UHFFFAOYSA-N

>  <energy_score>  (429) 
-26.998528

>  <subsites>  (429) 
1 - Active Site,5 - A3181/A/202/1

>  <alias>  (429) 
C3219-P551

>  <tags>  (429) 
openbind_a71ev2a_c1_scaffolds,BulkDock Fragalysis export,openbind_a71ev2a_c1_knitwork_impure,fragmenstein_placed

>  <distance_score>  (429) 
0.430856

>  <placement_batch>  (429) 
openbind_a71ev2a_c1_knitwork_impure

>  <name>  (429) 
C3219-P551

>  <ref_mols>  (429) 
A0528b,A5036b

>  <smiles>  (429) 
O=C1CC(NC(=O)[C@H](c2ccccc2)N2CCCCC2=O)C1

>  <HIPPO Compound ID>  (429) 
7455

>  <HIPPO Pose ID>  (429) 
424959

>  <ref_pdb>  (429) 
A0341a

$$$$
C935-P213
     RDKit          3D

 22 25  0  0  0  0  0  0  0  0999 V2000
   21.2356   15.7460    1.5099 C   0  0  0  0  0  0  0  0  0  0  0  0
   22.3253   14.8303    2.1084 C   0  0  0  0  0  0  0  0  0  0  0  0
   23.4103   15.7400    2.6970 C   0  0  0  0  0  0  0  0  0  0  0  0
   21.6309   13.9960    3.1671 C   0  0  0  0  0  0  0  0  0  0  0  0
   22.8531   13.9061    1.0392 C   0  0  0  0  0  0  0  0  0  0  0  0
   22.2113   13.6475   -0.0867 N   0  0  0  0  0  0  0  0  0  0  0  0
   22.9665   12.7990   -0.8442 N   0  0  0  0  0  0  0  0  0  0  0  0
   24.0591   12.5328   -0.1708 C   0  0  0  0  0  0  0  0  0  0  0  0
   24.0097   13.1619    1.0470 N   0  0  0  0  0  0  0  0  0  0  0  0
   25.0866   13.1227    2.0163 C   0  0  0  0  0  0  0  0  0  0  0  0
   26.2006   12.1170    1.6734 C   0  0  2  0  0  0  0  0  0  0  0  0
   27.4630   12.4817    2.3736 C   0  0  0  0  0  0  0  0  0  0  0  0
   28.0728   13.6445    2.4309 N   0  0  0  0  0  0  0  0  0  0  0  0
   29.2376   13.3241    3.0918 C   0  0  0  0  0  0  0  0  0  0  0  0
   30.3680   14.3834    3.3929 C   0  0  2  0  0  0  0  0  0  0  0  0
   30.4985   14.7971    4.8684 C   0  0  0  0  0  0  0  0  0  0  0  0
   29.5615   15.9567    4.5058 C   0  0  0  0  0  0  0  0  0  0  0  0
   29.9539   15.7835    3.0895 N   0  0  0  0  0  0  0  0  0  0  0  0
   29.3519   12.0341    3.4304 N   0  0  0  0  0  0  0  0  0  0  0  0
   28.1647   11.4706    2.9592 O   0  0  0  0  0  0  0  0  0  0  0  0
   26.4684   12.0782    0.1585 C   0  0  0  0  0  0  0  0  0  0  0  0
   25.2072   11.7091   -0.6094 C   0  0  0  0  0  0  0  0  0  0  0  0
  1  2  1  0
  2  3  1  0
  2  4  1  0
  2  5  1  0
  5  6  2  0
  6  7  1  0
  7  8  2  0
  8  9  1  0
  9 10  1  0
 10 11  1  0
 11 12  1  1
 12 13  2  0
 13 14  1  0
 15 14  1  1
 15 16  1  0
 16 17  1  0
 17 18  1  0
 14 19  2  0
 19 20  1  0
 11 21  1  0
 21 22  1  0
  9  5  1  0
 20 12  1  0
 22  8  1  0
 18 15  1  0
M  END
>  <inchikey>  (430) 
WGPOVBVNNQSGMO-UHFFFAOYSA-N

>  <energy_score>  (430) 
-57.07811

>  <subsites>  (430) 
6 - A0486/A/147/1,1 - Active Site

>  <alias>  (430) 
C935-P213

>  <tags>  (430) 
openbind_a71ev2a_c1_scaffolds,BulkDock Fragalysis export,openbind_a71ev2a_c1_knitwork_impure,fragmenstein_placed

>  <distance_score>  (430) 
0.958015

>  <placement_batch>  (430) 
openbind_a71ev2a_c1_knitwork_impure

>  <name>  (430) 
C935-P213

>  <ref_mols>  (430) 
A0239a,A3548a

>  <smiles>  (430) 
CC(C)(C)c1nnc2n1C[C@H](c1nc([C@@H]3CCN3)no1)CC2

>  <HIPPO Compound ID>  (430) 
82790

>  <HIPPO Pose ID>  (430) 
425224

>  <ref_pdb>  (430) 
A0341a

$$$$
C1800-P191
     RDKit          3D

 16 18  0  0  0  0  0  0  0  0999 V2000
    8.3752   14.3437   24.5411 C   0  0  0  0  0  0  0  0  0  0  0  0
    7.7299   13.3033   25.0977 N   0  0  0  0  0  0  0  0  0  0  0  0
    8.0211   12.0696   24.6282 C   0  0  0  0  0  0  0  0  0  0  0  0
    9.0118   11.8347   23.6867 C   0  0  0  0  0  0  0  0  0  0  0  0
    9.6690   12.9492   23.1386 C   0  0  0  0  0  0  0  0  0  0  0  0
    9.3153   14.2404   23.5234 C   0  0  0  0  0  0  0  0  0  0  0  0
    9.8254   15.5233   22.9022 C   0  0  0  0  0  0  0  0  0  0  0  0
   10.9652   16.1400   23.7221 C   0  0  0  0  0  0  0  0  0  0  0  0
   12.3385   15.7149   23.2408 C   0  0  0  0  0  0  0  0  0  0  0  0
   12.4916   15.9975   21.8235 N   0  0  0  0  0  0  0  0  0  0  0  0
   11.5700   15.1806   21.0377 C   0  0  0  0  0  0  0  0  0  0  0  0
   10.1189   15.4883   21.3905 C   0  0  0  0  0  0  0  0  0  0  0  0
    9.4386   10.4448   23.3252 C   0  0  0  0  0  0  0  0  0  0  0  0
    8.4567    9.3314   23.6327 C   0  0  0  0  0  0  0  0  0  0  0  0
    7.4463    9.5739   24.7320 C   0  0  0  0  0  0  0  0  0  0  0  0
    7.1708   10.9873   25.1907 C   0  0  0  0  0  0  0  0  0  0  0  0
  1  2  2  0
  2  3  1  0
  3  4  2  0
  4  5  1  0
  5  6  2  0
  6  7  1  0
  7  8  1  0
  8  9  1  0
  9 10  1  0
 10 11  1  0
 11 12  1  0
  4 13  1  0
 13 14  1  0
 14 15  1  0
 15 16  1  0
  6  1  1  0
 12  7  1  0
 16  3  1  0
M  END
>  <inchikey>  (431) 
UMKQGKPJZAJAOK-UHFFFAOYSA-N

>  <energy_score>  (431) 
-14.271449

>  <subsites>  (431) 
1 - Active Site

>  <alias>  (431) 
C1800-P191

>  <tags>  (431) 
openbind_a71ev2a_c1_scaffolds,BulkDock Fragalysis export,openbind_a71ev2a_c1_knitwork_impure,fragmenstein_placed

>  <distance_score>  (431) 
0.811847

>  <placement_batch>  (431) 
openbind_a71ev2a_c1_knitwork_impure

>  <name>  (431) 
C1800-P191

>  <ref_mols>  (431) 
A0556a,A3509b

>  <smiles>  (431) 
c1nc2c(cc1C1CCNCC1)CCCC2

>  <HIPPO Compound ID>  (431) 
5666

>  <HIPPO Pose ID>  (431) 
425258

>  <ref_pdb>  (431) 
A0341a

$$$$
C8160-P465
     RDKit          3D

 14 14  0  0  0  0  0  0  0  0999 V2000
    7.7895   10.6466   25.4810 C   0  0  0  0  0  0  0  0  0  0  0  0
    8.9761   10.8736   24.5536 C   0  0  0  0  0  0  0  0  0  0  0  0
    9.9736    9.7233   24.6219 C   0  0  0  0  0  0  0  0  0  0  0  0
    9.6662   12.2034   24.8382 C   0  0  0  0  0  0  0  0  0  0  0  0
    8.7225   13.3163   24.9953 N   0  0  0  0  0  0  0  0  0  0  0  0
    7.9655   13.9596   23.6492 S   0  0  0  0  0  0  0  0  0  0  0  0
    7.2977   12.8855   22.9508 O   0  0  0  0  0  0  0  0  0  0  0  0
    7.2459   15.1123   24.1302 O   0  0  0  0  0  0  0  0  0  0  0  0
    9.2898   14.4530   22.7603 N   0  0  0  0  0  0  0  0  0  0  0  0
   10.2861   15.2995   23.4517 C   0  0  0  0  0  0  0  0  0  0  0  0
   11.5716   15.2358   22.6408 C   0  0  0  0  0  0  0  0  0  0  0  0
   11.3361   15.8197   21.2568 C   0  0  0  0  0  0  0  0  0  0  0  0
   10.1794   15.1169   20.5565 C   0  0  0  0  0  0  0  0  0  0  0  0
    8.9351   15.0499   21.4380 C   0  0  0  0  0  0  0  0  0  0  0  0
  1  2  1  0
  2  3  1  0
  2  4  1  0
  4  5  1  0
  5  6  1  0
  6  7  2  0
  6  8  2  0
  6  9  1  0
  9 10  1  0
 10 11  1  0
 11 12  1  0
 12 13  1  0
 13 14  1  0
 14  9  1  0
M  END
>  <inchikey>  (432) 
AZDQXSSEMYQDTA-UHFFFAOYSA-N

>  <energy_score>  (432) 
-48.109643

>  <subsites>  (432) 
1 - Active Site

>  <alias>  (432) 
C8160-P465

>  <tags>  (432) 
openbind_a71ev2a_c1_scaffolds,BulkDock Fragalysis export,openbind_a71ev2a_c1_knitwork_impure,fragmenstein_placed

>  <distance_score>  (432) 
0.764406

>  <placement_batch>  (432) 
openbind_a71ev2a_c1_knitwork_impure

>  <name>  (432) 
C8160-P465

>  <ref_mols>  (432) 
A4786a,A0719a

>  <smiles>  (432) 
CC(C)CNS(=O)(=O)N1CCCCC1

>  <HIPPO Compound ID>  (432) 
1366

>  <HIPPO Pose ID>  (432) 
425670

>  <ref_pdb>  (432) 
A0341a

$$$$
C8169-P465
     RDKit          3D

 14 14  0  0  0  0  0  0  0  0999 V2000
    7.3724   12.9763   22.8686 O   0  0  0  0  0  0  0  0  0  0  0  0
    8.0362   14.0452   23.5793 S   0  0  0  0  0  0  0  0  0  0  0  0
    7.3184   15.1987   24.0607 O   0  0  0  0  0  0  0  0  0  0  0  0
    8.8059   13.3967   24.9223 N   0  0  0  0  0  0  0  0  0  0  0  0
    9.7582   12.2933   24.7500 C   0  0  0  0  0  0  0  0  0  0  0  0
    9.0947   10.9721   24.4178 C   0  0  0  0  0  0  0  0  0  0  0  0
    8.1167   10.5015   25.4723 C   0  0  0  0  0  0  0  0  0  0  0  0
    6.7078   11.5356   25.7688 Cl  0  0  0  0  0  0  0  0  0  0  0  0
    9.3600   14.5373   22.6976 N   0  0  0  0  0  0  0  0  0  0  0  0
   10.3658   15.3664   23.3910 C   0  0  0  0  0  0  0  0  0  0  0  0
   11.6558   15.2433   22.5971 C   0  0  0  0  0  0  0  0  0  0  0  0
   11.4487   15.8140   21.2039 C   0  0  0  0  0  0  0  0  0  0  0  0
   10.2755   15.1446   20.4977 C   0  0  0  0  0  0  0  0  0  0  0  0
    9.0240   15.1252   21.3706 C   0  0  0  0  0  0  0  0  0  0  0  0
  1  2  2  0
  2  3  2  0
  2  4  1  0
  4  5  1  0
  5  6  1  0
  6  7  1  0
  7  8  1  0
  2  9  1  0
  9 10  1  0
 10 11  1  0
 11 12  1  0
 12 13  1  0
 13 14  1  0
 14  9  1  0
M  END
>  <inchikey>  (433) 
DZZJAVFDEJKWKN-UHFFFAOYSA-N

>  <energy_score>  (433) 
-66.420239

>  <subsites>  (433) 
1 - Active Site

>  <alias>  (433) 
C8169-P465

>  <tags>  (433) 
openbind_a71ev2a_c1_scaffolds,BulkDock Fragalysis export,openbind_a71ev2a_c1_knitwork_impure,fragmenstein_placed

>  <distance_score>  (433) 
0.788945

>  <placement_batch>  (433) 
openbind_a71ev2a_c1_knitwork_impure

>  <name>  (433) 
C8169-P465

>  <ref_mols>  (433) 
A4786a,A0719a

>  <smiles>  (433) 
O=S(=O)(NCCCCl)N1CCCCC1

>  <HIPPO Compound ID>  (433) 
14701

>  <HIPPO Pose ID>  (433) 
425675

>  <ref_pdb>  (433) 
A0341a

$$$$
C8172-P465
     RDKit          3D

 15 15  0  0  0  0  0  0  0  0999 V2000
    7.3907   10.5820   25.7685 C   0  0  0  0  0  0  0  0  0  0  0  0
    8.3865   11.1677   25.4511 C   0  0  0  0  0  0  0  0  0  0  0  0
    9.3673   12.0862   24.8689 C   0  0  0  0  0  0  0  0  0  0  0  0
   10.6513   12.1935   25.6846 C   0  0  0  0  0  0  0  0  0  0  0  0
    9.7447   11.5470   23.5049 C   0  0  0  0  0  0  0  0  0  0  0  0
    8.7280   13.4082   24.9156 N   0  0  0  0  0  0  0  0  0  0  0  0
    7.9346   14.0639   23.6125 S   0  0  0  0  0  0  0  0  0  0  0  0
    7.1941   13.0276   22.9329 O   0  0  0  0  0  0  0  0  0  0  0  0
    7.2874   15.2465   24.1254 O   0  0  0  0  0  0  0  0  0  0  0  0
    9.2517   14.5219   22.6937 N   0  0  0  0  0  0  0  0  0  0  0  0
   10.2833   15.3391   23.3711 C   0  0  0  0  0  0  0  0  0  0  0  0
   11.5609   15.2328   22.5550 C   0  0  0  0  0  0  0  0  0  0  0  0
   11.3258   15.8078   21.1680 C   0  0  0  0  0  0  0  0  0  0  0  0
   10.1393   15.1381   20.4839 C   0  0  0  0  0  0  0  0  0  0  0  0
    8.9005   15.1192   21.3762 C   0  0  0  0  0  0  0  0  0  0  0  0
  1  2  3  0
  2  3  1  0
  3  4  1  0
  3  5  1  0
  3  6  1  0
  6  7  1  0
  7  8  2  0
  7  9  2  0
  7 10  1  0
 10 11  1  0
 11 12  1  0
 12 13  1  0
 13 14  1  0
 14 15  1  0
 15 10  1  0
M  END
>  <inchikey>  (434) 
JHIZANCYCGQYNV-UHFFFAOYSA-N

>  <energy_score>  (434) 
-45.697148

>  <subsites>  (434) 
1 - Active Site

>  <alias>  (434) 
C8172-P465

>  <tags>  (434) 
openbind_a71ev2a_c1_scaffolds,BulkDock Fragalysis export,openbind_a71ev2a_c1_knitwork_impure,fragmenstein_placed

>  <distance_score>  (434) 
0.881782

>  <placement_batch>  (434) 
openbind_a71ev2a_c1_knitwork_impure

>  <name>  (434) 
C8172-P465

>  <ref_mols>  (434) 
A4786a,A0719a

>  <smiles>  (434) 
C#CC(C)(C)NS(=O)(=O)N1CCCCC1

>  <HIPPO Compound ID>  (434) 
5958

>  <HIPPO Pose ID>  (434) 
425678

>  <ref_pdb>  (434) 
A0341a

$$$$
C8041-P161
     RDKit          3D

 19 19  0  0  0  0  0  0  0  0999 V2000
    9.3745   16.9571   21.6190 C   0  0  0  0  0  0  0  0  0  0  0  0
    9.5262   15.4887   21.2930 C   0  0  1  0  0  0  0  0  0  0  0  0
   10.8264   15.1809   20.5697 C   0  0  0  0  0  0  0  0  0  0  0  0
   10.8119   15.6726   19.1464 C   0  0  0  0  0  0  0  0  0  0  0  0
   11.7887   15.0778   18.4330 F   0  0  0  0  0  0  0  0  0  0  0  0
   10.9962   16.9974   19.1028 F   0  0  0  0  0  0  0  0  0  0  0  0
    9.6449   15.4407   18.5261 F   0  0  0  0  0  0  0  0  0  0  0  0
    9.4617   14.7091   22.5124 N   0  0  0  0  0  0  0  0  0  0  0  0
    8.4752   13.5787   22.9405 C   0  0  0  0  0  0  0  0  0  0  0  0
    7.5206   13.1616   22.4046 O   0  0  0  0  0  0  0  0  0  0  0  0
    9.0483   13.0159   24.2902 C   0  0  0  0  0  0  0  0  0  0  0  0
    9.2797   14.0440   25.1739 F   0  0  0  0  0  0  0  0  0  0  0  0
   10.3112   12.5099   24.0767 F   0  0  0  0  0  0  0  0  0  0  0  0
    8.1515   11.9575   24.8825 C   0  0  0  0  0  0  0  0  0  0  0  0
    8.3621   10.6208   24.5430 C   0  0  0  0  0  0  0  0  0  0  0  0
    7.5394    9.6679   25.0993 C   0  0  0  0  0  0  0  0  0  0  0  0
    6.5282    9.9453   25.9475 N   0  0  0  0  0  0  0  0  0  0  0  0
    6.3158   11.2462   26.2362 C   0  0  0  0  0  0  0  0  0  0  0  0
    7.0951   12.2778   25.7407 C   0  0  0  0  0  0  0  0  0  0  0  0
  2  1  1  1
  2  3  1  0
  3  4  1  0
  4  5  1  0
  4  6  1  0
  4  7  1  0
  2  8  1  0
  8  9  1  0
  9 10  2  0
  9 11  1  0
 11 12  1  0
 11 13  1  0
 11 14  1  0
 14 15  2  0
 15 16  1  0
 16 17  2  0
 17 18  1  0
 18 19  2  0
 19 14  1  0
M  END
>  <inchikey>  (435) 
TTZBCFDUPZCDLF-UHFFFAOYSA-N

>  <energy_score>  (435) 
-15.369828

>  <subsites>  (435) 
1 - Active Site

>  <alias>  (435) 
C8041-P161

>  <tags>  (435) 
openbind_a71ev2a_c1_scaffolds,BulkDock Fragalysis export,openbind_a71ev2a_c1_knitwork_impure,fragmenstein_placed

>  <distance_score>  (435) 
0.623562

>  <placement_batch>  (435) 
openbind_a71ev2a_c1_knitwork_impure

>  <name>  (435) 
C8041-P161

>  <ref_mols>  (435) 
A3229a,A1778a

>  <smiles>  (435) 
C[C@@H](CC(F)(F)F)NC(=O)C(F)(F)c1ccncc1

>  <HIPPO Compound ID>  (435) 
41445

>  <HIPPO Pose ID>  (435) 
425720

>  <ref_pdb>  (435) 
A0341a

$$$$
C2382-P152
     RDKit          3D

 15 15  0  0  0  0  0  0  0  0999 V2000
    7.8641   10.9459   25.8453 C   0  0  0  0  0  0  0  0  0  0  0  0
    8.2425   10.5432   24.4343 C   0  0  0  0  0  0  0  0  0  0  0  0
    8.5941    9.0633   24.3922 C   0  0  0  0  0  0  0  0  0  0  0  0
    9.3562   11.3294   23.7461 C   0  0  0  0  0  0  0  0  0  0  0  0
    9.6371   12.7158   24.2607 C   0  0  0  0  0  0  0  0  0  0  0  0
   10.5171   12.8025   25.1275 O   0  0  0  0  0  0  0  0  0  0  0  0
    8.8165   13.9563   23.7451 C   0  0  0  0  0  0  0  0  0  0  0  0
    8.1218   14.5747   24.9670 C   0  0  0  0  0  0  0  0  0  0  0  0
    7.6693   13.5772   22.8044 C   0  0  0  0  0  0  0  0  0  0  0  0
    9.6612   15.0508   23.2059 N   0  0  0  0  0  0  0  0  0  0  0  0
   11.0120   15.2446   23.7249 C   0  0  0  0  0  0  0  0  0  0  0  0
   12.0666   14.5126   22.8920 C   0  0  0  0  0  0  0  0  0  0  0  0
   11.9691   14.8969   21.4179 C   0  0  0  0  0  0  0  0  0  0  0  0
   10.5432   14.7325   20.9095 C   0  0  0  0  0  0  0  0  0  0  0  0
    9.5619   15.4695   21.8092 C   0  0  0  0  0  0  0  0  0  0  0  0
  1  2  1  0
  2  3  1  0
  2  4  1  0
  4  5  1  0
  5  6  2  0
  5  7  1  0
  7  8  1  0
  7  9  1  0
  7 10  1  0
 10 11  1  0
 11 12  1  0
 12 13  1  0
 13 14  1  0
 14 15  1  0
 15 10  1  0
M  END
>  <inchikey>  (436) 
TVKHXLKOZGSFPX-UHFFFAOYSA-N

>  <energy_score>  (436) 
-35.587587

>  <subsites>  (436) 
1 - Active Site

>  <alias>  (436) 
C2382-P152

>  <tags>  (436) 
openbind_a71ev2a_c1_scaffolds,BulkDock Fragalysis export,openbind_a71ev2a_c1_knitwork_impure,fragmenstein_placed

>  <distance_score>  (436) 
0.966979

>  <placement_batch>  (436) 
openbind_a71ev2a_c1_knitwork_impure

>  <name>  (436) 
C2382-P152

>  <ref_mols>  (436) 
A3201a,A1775a

>  <smiles>  (436) 
CC(C)CC(=O)C(C)(C)N1CCCCC1

>  <HIPPO Compound ID>  (436) 
9826

>  <HIPPO Pose ID>  (436) 
426593

>  <ref_pdb>  (436) 
A5427a

$$$$
C2384-P152
     RDKit          3D

 15 15  0  0  0  0  0  0  0  0999 V2000
   12.0680   15.0929   22.2528 C   0  0  0  0  0  0  0  0  0  0  0  0
   10.7871   15.6553   22.8654 C   0  0  0  0  0  0  0  0  0  0  0  0
    9.4763   14.9753   22.4591 C   0  0  1  0  0  0  0  0  0  0  0  0
    9.4448   14.7868   20.9427 C   0  0  0  0  0  0  0  0  0  0  0  0
    8.9712   13.6803   23.1199 C   0  0  0  0  0  0  0  0  0  0  0  0
    7.9754   13.1339   22.6171 O   0  0  0  0  0  0  0  0  0  0  0  0
    9.5196   13.1575   24.4610 C   0  0  0  0  0  0  0  0  0  0  0  0
   11.0569   13.2466   24.5799 C   0  0  0  0  0  0  0  0  0  0  0  0
    8.8524   14.0282   25.5352 C   0  0  0  0  0  0  0  0  0  0  0  0
    9.2211   11.6414   24.6402 C   0  0  2  0  0  0  0  0  0  0  0  0
    9.7033   10.8478   23.4233 C   0  0  0  0  0  0  0  0  0  0  0  0
    9.8891    9.3952   23.7655 C   0  0  0  0  0  0  0  0  0  0  0  0
    8.6409    8.8646   24.4336 C   0  0  0  0  0  0  0  0  0  0  0  0
    7.9689    9.7153   25.4219 N   0  0  0  0  0  0  0  0  0  0  0  0
    7.8420   11.1231   25.0051 C   0  0  0  0  0  0  0  0  0  0  0  0
  1  2  1  0
  2  3  1  0
  3  4  1  6
  3  5  1  0
  5  6  2  0
  5  7  1  0
  7  8  1  0
  7  9  1  0
 10  7  1  6
 10 11  1  0
 11 12  1  0
 12 13  1  0
 13 14  1  0
 14 15  1  0
 15 10  1  0
M  END
>  <inchikey>  (437) 
JAFBAXAMVALFBL-UHFFFAOYSA-N

>  <energy_score>  (437) 
-35.49036

>  <subsites>  (437) 
1 - Active Site

>  <alias>  (437) 
C2384-P152

>  <tags>  (437) 
openbind_a71ev2a_c1_scaffolds,BulkDock Fragalysis export,openbind_a71ev2a_c1_knitwork_impure,fragmenstein_placed

>  <distance_score>  (437) 
0.935065

>  <placement_batch>  (437) 
openbind_a71ev2a_c1_knitwork_impure

>  <name>  (437) 
C2384-P152

>  <ref_mols>  (437) 
A3201a,A1775a

>  <smiles>  (437) 
CC[C@@H](C)C(=O)C(C)(C)[C@@H]1CCCNC1

>  <HIPPO Compound ID>  (437) 
6036

>  <HIPPO Pose ID>  (437) 
426594

>  <ref_pdb>  (437) 
A5427a

$$$$
C21693-P248
     RDKit          3D

 14 14  0  0  0  0  0  0  0  0999 V2000
    7.3551   14.6219   26.4514 C   0  0  0  0  0  0  0  0  0  0  0  0
    7.1105   14.0758   25.0351 C   0  0  1  0  0  0  0  0  0  0  0  0
    7.4764   15.1697   24.0433 C   0  0  0  0  0  0  0  0  0  0  0  0
    7.1565   14.8459   22.3178 S   0  0  0  0  0  0  0  0  0  0  0  0
    5.8100   15.7903   22.0342 N   0  0  0  0  0  0  0  0  0  0  0  0
    8.2369   15.4444   21.5707 O   0  0  0  0  0  0  0  0  0  0  0  0
    6.7631   13.4788   22.0691 O   0  0  0  0  0  0  0  0  0  0  0  0
    7.7750   12.7731   24.8739 N   0  0  0  0  0  0  0  0  0  0  0  0
    9.1122   12.6571   24.3131 C   0  0  0  0  0  0  0  0  0  0  0  0
    9.1447   11.4698   23.3894 C   0  0  0  0  0  0  0  0  0  0  0  0
    8.6967   10.2050   24.0751 C   0  0  0  0  0  0  0  0  0  0  0  0
    7.7304   10.4520   25.1200 N   0  0  0  0  0  0  0  0  0  0  0  0
    7.1822   11.6564   25.4382 C   0  0  0  0  0  0  0  0  0  0  0  0
    6.2258   11.6953   26.2075 O   0  0  0  0  0  0  0  0  0  0  0  0
  2  1  1  1
  2  3  1  0
  3  4  1  0
  4  5  1  0
  4  6  2  0
  4  7  2  0
  2  8  1  0
  8  9  1  0
  9 10  1  0
 10 11  1  0
 11 12  1  0
 12 13  1  0
 13 14  2  0
 13  8  1  0
M  END
>  <inchikey>  (438) 
FGJOWJHHEOWVGK-UHFFFAOYSA-N

>  <energy_score>  (438) 
-44.127023

>  <subsites>  (438) 
1 - Active Site

>  <alias>  (438) 
C21693-P248

>  <tags>  (438) 
openbind_a71ev2a_c1_scaffolds,BulkDock Fragalysis export,openbind_a71ev2a_c1_knitwork_impure,fragmenstein_placed

>  <distance_score>  (438) 
0.62422

>  <placement_batch>  (438) 
openbind_a71ev2a_c1_knitwork_impure

>  <name>  (438) 
C21693-P248

>  <ref_mols>  (438) 
A3956a,A0719a

>  <smiles>  (438) 
C[C@@H](CS(N)(=O)=O)N1CCCNC1=O

>  <HIPPO Compound ID>  (438) 
1349

>  <HIPPO Pose ID>  (438) 
426953

>  <ref_pdb>  (438) 
A5427a

$$$$
C21712-P248
     RDKit          3D

 19 20  0  0  0  0  0  0  0  0999 V2000
    7.4546   14.9780   26.2654 C   0  0  0  0  0  0  0  0  0  0  0  0
    7.3979   14.3288   24.8764 C   0  0  2  0  0  0  0  0  0  0  0  0
    6.1471   14.8062   24.1175 C   0  0  0  0  0  0  0  0  0  0  0  0
    6.3489   14.7001   22.3369 S   0  0  0  0  0  0  0  0  0  0  0  0
    7.4285   15.5942   21.9786 O   0  0  0  0  0  0  0  0  0  0  0  0
    6.3953   13.3306   21.8884 O   0  0  0  0  0  0  0  0  0  0  0  0
    4.9527   15.3903   21.7267 N   0  0  0  0  0  0  0  0  0  0  0  0
    3.5367   15.0290   21.9955 C   0  0  2  0  0  0  0  0  0  0  0  0
    3.1781   13.6251   22.3726 C   0  0  0  0  0  0  0  0  0  0  0  0
    1.7082   13.4495   22.0450 C   0  0  0  0  0  0  0  0  0  0  0  0
    1.5565   14.2813   20.9072 N   0  0  0  0  0  0  0  0  0  0  0  0
    2.6247   15.1364   20.7810 C   0  0  0  0  0  0  0  0  0  0  0  0
    2.7538   15.9053   19.8491 O   0  0  0  0  0  0  0  0  0  0  0  0
    7.4511   12.8124   24.9766 C   0  0  0  0  0  0  0  0  0  0  0  0
    6.5806   12.0814   25.8042 C   0  0  0  0  0  0  0  0  0  0  0  0
    6.6096   10.6856   25.8115 C   0  0  0  0  0  0  0  0  0  0  0  0
    7.5007   10.0084   24.9850 C   0  0  0  0  0  0  0  0  0  0  0  0
    8.3801   10.7169   24.1736 C   0  0  0  0  0  0  0  0  0  0  0  0
    8.3601   12.1098   24.1724 C   0  0  0  0  0  0  0  0  0  0  0  0
  2  1  1  1
  2  3  1  0
  3  4  1  0
  4  5  2  0
  4  6  2  0
  4  7  1  0
  8  7  1  6
  8  9  1  0
  9 10  1  0
 10 11  1  0
 11 12  1  0
 12 13  2  0
  2 14  1  0
 14 15  2  0
 15 16  1  0
 16 17  2  0
 17 18  1  0
 18 19  2  0
 12  8  1  0
 19 14  1  0
M  END
>  <inchikey>  (439) 
IHIYXEORUGHWBE-UHFFFAOYSA-N

>  <energy_score>  (439) 
-36.778328

>  <subsites>  (439) 
1 - Active Site

>  <alias>  (439) 
C21712-P248

>  <tags>  (439) 
openbind_a71ev2a_c1_scaffolds,BulkDock Fragalysis export,openbind_a71ev2a_c1_knitwork_impure,fragmenstein_placed

>  <distance_score>  (439) 
0.783076

>  <placement_batch>  (439) 
openbind_a71ev2a_c1_knitwork_impure

>  <name>  (439) 
C21712-P248

>  <ref_mols>  (439) 
A3956a,A0719a

>  <smiles>  (439) 
C[C@H](CS(=O)(=O)N[C@@H]1CCNC1=O)c1ccccc1

>  <HIPPO Compound ID>  (439) 
31965

>  <HIPPO Pose ID>  (439) 
426964

>  <ref_pdb>  (439) 
A5427a

$$$$
C956-P337
     RDKit          3D

 18 20  0  0  0  0  0  0  0  0999 V2000
   22.4249   14.4254    2.9040 C   0  0  0  0  0  0  0  0  0  0  0  0
   22.8674   13.8162    1.6331 C   0  0  0  0  0  0  0  0  0  0  0  0
   22.1971   13.7948    0.4976 N   0  0  0  0  0  0  0  0  0  0  0  0
   22.9703   13.1616   -0.4488 N   0  0  0  0  0  0  0  0  0  0  0  0
   24.1007   12.8086    0.1285 C   0  0  0  0  0  0  0  0  0  0  0  0
   24.0704   13.1967    1.4414 N   0  0  0  0  0  0  0  0  0  0  0  0
   25.1815   13.0792    2.3605 C   0  0  0  0  0  0  0  0  0  0  0  0
   26.2797   12.1472    1.8443 C   0  0  0  0  0  0  0  0  0  0  0  0
   26.5455   12.3778    0.3548 C   0  0  0  0  0  0  0  0  0  0  0  0
   25.2781   12.1184   -0.4694 C   0  0  2  0  0  0  0  0  0  0  0  0
   25.4212   12.5587   -1.8324 N   0  0  0  0  0  0  0  0  0  0  0  0
   26.5017   12.2256   -2.8869 C   0  0  0  0  0  0  0  0  0  0  0  0
   27.4834   11.6053   -2.7919 O   0  0  0  0  0  0  0  0  0  0  0  0
   26.0497   12.8995   -4.1769 C   0  0  0  0  0  0  0  0  0  0  0  0
   26.9883   12.6481   -5.3560 C   0  0  0  0  0  0  0  0  0  0  0  0
   26.4508   13.1565   -6.7238 C   0  0  0  0  0  0  0  0  0  0  0  0
   27.3369   11.8035   -7.5628 S   0  0  0  0  0  0  0  0  0  0  0  0
   27.0675   11.1787   -5.8679 C   0  0  0  0  0  0  0  0  0  0  0  0
  1  2  1  0
  2  3  2  0
  3  4  1  0
  4  5  2  0
  5  6  1  0
  6  7  1  0
  7  8  1  0
  8  9  1  0
  9 10  1  0
 10 11  1  6
 11 12  1  0
 12 13  2  0
 12 14  1  0
 14 15  1  0
 15 16  1  0
 16 17  1  0
 17 18  1  0
  6  2  1  0
 18 15  1  0
 10  5  1  0
M  END
>  <inchikey>  (440) 
MDGFSWJANWKXMW-UHFFFAOYSA-N

>  <energy_score>  (440) 
-13.232875

>  <subsites>  (440) 
6 - A0486/A/147/1,1 - Active Site

>  <alias>  (440) 
C956-P337

>  <tags>  (440) 
openbind_a71ev2a_c1_scaffolds,BulkDock Fragalysis export,openbind_a71ev2a_c1_knitwork_impure,fragmenstein_placed

>  <distance_score>  (440) 
0.462014

>  <placement_batch>  (440) 
openbind_a71ev2a_c1_knitwork_impure

>  <name>  (440) 
C956-P337

>  <ref_mols>  (440) 
A4214b,A0239a

>  <smiles>  (440) 
Cc1nnc2n1CCC[C@@H]2NC(=O)CC1CSC1

>  <HIPPO Compound ID>  (440) 
2631

>  <HIPPO Pose ID>  (440) 
427001

>  <ref_pdb>  (440) 
A5427a

$$$$
C1002-P337
     RDKit          3D

 20 22  0  0  0  0  0  0  0  0999 V2000
   30.5365    8.4717    1.0176 C   0  0  0  0  0  0  0  0  0  0  0  0
   30.2971    9.5962    1.3663 C   0  0  0  0  0  0  0  0  0  0  0  0
   30.0107   10.9731    1.7955 C   0  0  2  0  0  0  0  0  0  0  0  0
   28.6330   11.2751    1.5028 N   0  0  0  0  0  0  0  0  0  0  0  0
   27.6848   12.3395    2.1117 C   0  0  0  0  0  0  0  0  0  0  0  0
   27.8961   13.1839    2.8877 O   0  0  0  0  0  0  0  0  0  0  0  0
   26.3140   12.1470    1.4481 C   0  0  2  0  0  0  0  0  0  0  0  0
   26.3674   12.4640   -0.0586 C   0  0  0  0  0  0  0  0  0  0  0  0
   25.0150   12.1944   -0.7174 C   0  0  0  0  0  0  0  0  0  0  0  0
   23.9201   12.8342    0.0443 C   0  0  0  0  0  0  0  0  0  0  0  0
   22.7222   13.1684   -0.3781 N   0  0  0  0  0  0  0  0  0  0  0  0
   22.0651   13.7721    0.6689 N   0  0  0  0  0  0  0  0  0  0  0  0
   22.8732   13.7862    1.7111 C   0  0  0  0  0  0  0  0  0  0  0  0
   22.5832   14.3706    3.0349 C   0  0  0  0  0  0  0  0  0  0  0  0
   24.0474   13.1807    1.3617 N   0  0  0  0  0  0  0  0  0  0  0  0
   25.2645   13.0434    2.1365 C   0  0  0  0  0  0  0  0  0  0  0  0
   30.8470   11.9722    1.0030 C   0  0  0  0  0  0  0  0  0  0  0  0
   30.8752   13.4464    1.5036 C   0  0  0  0  0  0  0  0  0  0  0  0
   32.3553   13.4882    1.0759 C   0  0  0  0  0  0  0  0  0  0  0  0
   32.3794   11.9605    1.2795 C   0  0  0  0  0  0  0  0  0  0  0  0
  1  2  3  0
  3  2  1  6
  3  4  1  0
  4  5  1  0
  5  6  2  0
  7  5  1  1
  7  8  1  0
  8  9  1  0
  9 10  1  0
 10 11  2  0
 11 12  1  0
 12 13  2  0
 13 14  1  0
 13 15  1  0
 15 16  1  0
  3 17  1  0
 17 18  1  0
 18 19  1  0
 19 20  1  0
 16  7  1  0
 20 17  1  0
 15 10  1  0
M  END
>  <inchikey>  (441) 
BMFYZDOZZIDDSD-UHFFFAOYSA-N

>  <energy_score>  (441) 
-18.047747

>  <subsites>  (441) 
6 - A0486/A/147/1,1 - Active Site

>  <alias>  (441) 
C1002-P337

>  <tags>  (441) 
openbind_a71ev2a_c1_scaffolds,BulkDock Fragalysis export,openbind_a71ev2a_c1_knitwork_impure,fragmenstein_placed

>  <distance_score>  (441) 
0.531046

>  <placement_batch>  (441) 
openbind_a71ev2a_c1_knitwork_impure

>  <name>  (441) 
C1002-P337

>  <ref_mols>  (441) 
A4214b,A0239a

>  <smiles>  (441) 
C#C[C@H](NC(=O)[C@@H]1CCc2nnc(C)n2C1)C1CCC1

>  <HIPPO Compound ID>  (441) 
9840

>  <HIPPO Pose ID>  (441) 
427005

>  <ref_pdb>  (441) 
A5427a

$$$$
C4702-P152
     RDKit          3D

 11 11  0  0  0  0  0  0  0  0999 V2000
   10.5979   15.2656   19.8824 C   0  0  0  0  0  0  0  0  0  0  0  0
   10.6329   15.1348   21.2185 C   0  0  0  0  0  0  0  0  0  0  0  0
   11.8892   15.4192   21.9915 C   0  0  0  0  0  0  0  0  0  0  0  0
   12.1602   14.2926   22.9775 C   0  0  0  0  0  0  0  0  0  0  0  0
   10.9307   13.9923   23.8320 C   0  0  0  0  0  0  0  0  0  0  0  0
    9.7911   13.6245   22.9818 N   0  0  0  0  0  0  0  0  0  0  0  0
    8.6220   13.1107   23.7282 C   0  0  2  0  0  0  0  0  0  0  0  0
    8.2269   13.9116   24.9626 C   0  0  0  0  0  0  0  0  0  0  0  0
    8.8859   11.6539   24.1289 C   0  0  0  0  0  0  0  0  0  0  0  0
    8.6120   11.1728   25.2298 O   0  0  0  0  0  0  0  0  0  0  0  0
    9.4461   14.7242   22.0606 C   0  0  0  0  0  0  0  0  0  0  0  0
  1  2  2  0
  2  3  1  0
  3  4  1  0
  4  5  1  0
  5  6  1  0
  6  7  1  0
  7  8  1  1
  7  9  1  0
  9 10  2  0
  6 11  1  0
 11  2  1  0
M  END
>  <inchikey>  (442) 
ZJMRYSAATNYSCO-UHFFFAOYSA-N

>  <energy_score>  (442) 
-36.280328

>  <subsites>  (442) 
1 - Active Site

>  <alias>  (442) 
C4702-P152

>  <tags>  (442) 
openbind_a71ev2a_c1_scaffolds,BulkDock Fragalysis export,openbind_a71ev2a_c1_knitwork_impure,fragmenstein_placed

>  <distance_score>  (442) 
0.91639

>  <placement_batch>  (442) 
openbind_a71ev2a_c1_knitwork_impure

>  <name>  (442) 
C4702-P152

>  <ref_mols>  (442) 
A3201a,A1775a

>  <smiles>  (442) 
C=C1CCCN([C@H](C)C=O)C1

>  <HIPPO Compound ID>  (442) 
33915

>  <HIPPO Pose ID>  (442) 
427031

>  <ref_pdb>  (442) 
A5427a

$$$$
C22606-P136
     RDKit          3D

 26 30  0  0  0  0  0  0  0  0999 V2000
   20.0977   13.1829   28.5954 C   0  0  0  0  0  0  0  0  0  0  0  0
   20.5854   13.8567   27.4898 C   0  0  0  0  0  0  0  0  0  0  0  0
   21.9114   14.3067   27.5113 C   0  0  0  0  0  0  0  0  0  0  0  0
   22.4258   14.9969   26.3747 N   0  0  0  0  0  0  0  0  0  0  0  0
   21.6406   15.1348   25.2682 N   0  0  0  0  0  0  0  0  0  0  0  0
   22.3965   15.7973   24.3942 C   0  0  0  0  0  0  0  0  0  0  0  0
   23.6576   16.1281   24.9056 C   0  0  0  0  0  0  0  0  0  0  0  0
   24.7958   16.8193   24.4705 C   0  0  0  0  0  0  0  0  0  0  0  0
   24.9290   17.4219   23.2095 N   0  0  0  0  0  0  0  0  0  0  0  0
   24.2499   18.7205   23.1894 C   0  0  0  0  0  0  0  0  0  0  0  0
   24.9484   19.7365   22.3075 C   0  0  0  0  0  0  0  0  0  0  0  0
   24.4571   21.0682   22.3003 C   0  0  0  0  0  0  0  0  0  0  0  0
   25.0633   22.0660   21.5294 C   0  0  0  0  0  0  0  0  0  0  0  0
   26.1524   21.7092   20.7678 C   0  0  0  0  0  0  0  0  0  0  0  0
   26.6409   20.4248   20.7650 C   0  0  0  0  0  0  0  0  0  0  0  0
   26.0650   19.4209   21.5167 C   0  0  0  0  0  0  0  0  0  0  0  0
   27.7296   20.2882   19.9612 O   0  0  0  0  0  0  0  0  0  0  0  0
   27.7930   21.6010   19.3701 C   0  0  0  0  0  0  0  0  0  0  0  0
   26.8626   22.5372   19.9556 O   0  0  0  0  0  0  0  0  0  0  0  0
   25.8380   16.9186   25.3256 N   0  0  0  0  0  0  0  0  0  0  0  0
   25.7348   16.3625   26.5443 C   0  0  0  0  0  0  0  0  0  0  0  0
   24.6957   15.6896   27.0596 N   0  0  0  0  0  0  0  0  0  0  0  0
   23.6684   15.5994   26.1885 C   0  0  0  0  0  0  0  0  0  0  0  0
   22.6843   14.0613   28.6461 C   0  0  0  0  0  0  0  0  0  0  0  0
   22.1000   13.3761   29.7011 C   0  0  0  0  0  0  0  0  0  0  0  0
   20.8258   12.9299   29.7019 N   0  0  0  0  0  0  0  0  0  0  0  0
  1  2  2  0
  2  3  1  0
  3  4  1  0
  4  5  1  0
  5  6  2  0
  6  7  1  0
  7  8  2  0
  8  9  1  0
  9 10  1  0
 10 11  1  0
 11 12  2  0
 12 13  1  0
 13 14  2  0
 14 15  1  0
 15 16  2  0
 15 17  1  0
 17 18  1  0
 18 19  1  0
  8 20  1  0
 20 21  2  0
 21 22  1  0
 22 23  2  0
  3 24  2  0
 24 25  1  0
 25 26  2  0
 26  1  1  0
 23  4  1  0
 23  7  1  0
 16 11  1  0
 19 14  1  0
M  END
>  <inchikey>  (443) 
REBHPYHCNJHMBG-UHFFFAOYSA-N

>  <energy_score>  (443) 
-50.094481

>  <subsites>  (443) 
1 - Active Site,5 - A3181/A/202/1

>  <alias>  (443) 
C22606-P136

>  <tags>  (443) 
openbind_a71ev2a_c1_scaffolds,BulkDock Fragalysis export,openbind_a71ev2a_c1_knitwork_impure,fragmenstein_placed

>  <distance_score>  (443) 
0.495842

>  <placement_batch>  (443) 
openbind_a71ev2a_c1_knitwork_impure

>  <name>  (443) 
C22606-P136

>  <ref_mols>  (443) 
A2846a,A0351b

>  <smiles>  (443) 
c1cc(-n2ncc3c(NCc4ccc5c(c4)OCO5)ncnc32)ccn1

>  <HIPPO Compound ID>  (443) 
1359

>  <HIPPO Pose ID>  (443) 
427110

>  <ref_pdb>  (443) 
A5427a

$$$$
C727-P93
     RDKit          3D

 12 13  0  0  0  0  0  0  0  0999 V2000
    7.1427   12.0087   25.3424 C   0  0  0  0  0  0  0  0  0  0  0  0
    7.7142   12.9856   24.5411 C   0  0  0  0  0  0  0  0  0  0  0  0
    8.8541   12.6682   23.8128 C   0  0  0  0  0  0  0  0  0  0  0  0
    9.5278   13.5737   23.0031 N   0  0  0  0  0  0  0  0  0  0  0  0
   10.7660   14.0833   23.5979 C   0  0  0  0  0  0  0  0  0  0  0  0
   11.6979   14.5006   22.4730 C   0  0  0  0  0  0  0  0  0  0  0  0
   11.0489   15.5294   21.5619 C   0  0  0  0  0  0  0  0  0  0  0  0
    9.6863   15.0517   21.0738 C   0  0  0  0  0  0  0  0  0  0  0  0
    8.7914   14.5771   22.2228 C   0  0  0  0  0  0  0  0  0  0  0  0
    9.3477   11.3630   23.9090 C   0  0  0  0  0  0  0  0  0  0  0  0
    8.7087   10.4509   24.7252 C   0  0  0  0  0  0  0  0  0  0  0  0
    7.6206   10.7506   25.4628 N   0  0  0  0  0  0  0  0  0  0  0  0
  1  2  2  0
  2  3  1  0
  3  4  1  0
  4  5  1  0
  5  6  1  0
  6  7  1  0
  7  8  1  0
  8  9  1  0
  3 10  2  0
 10 11  1  0
 11 12  2  0
 12  1  1  0
  9  4  1  0
M  END
>  <inchikey>  (444) 
BGTHUWNKRWKQLH-UHFFFAOYSA-N

>  <energy_score>  (444) 
-16.217354

>  <subsites>  (444) 
1 - Active Site

>  <alias>  (444) 
C727-P93

>  <tags>  (444) 
openbind_a71ev2a_c1_scaffolds,BulkDock Fragalysis export,openbind_a71ev2a_c1_knitwork_impure,fragmenstein_placed

>  <distance_score>  (444) 
0.905371

>  <placement_batch>  (444) 
openbind_a71ev2a_c1_knitwork_impure

>  <name>  (444) 
C727-P93

>  <ref_mols>  (444) 
A3623a,A0926a

>  <smiles>  (444) 
c1cc(N2CCCCC2)ccn1

>  <HIPPO Compound ID>  (444) 
12023

>  <HIPPO Pose ID>  (444) 
427412

>  <ref_pdb>  (444) 
A5427a

$$$$
C2304-P137
     RDKit          3D

 12 12  0  0  0  0  0  0  0  0999 V2000
    8.5261   10.5796   25.4248 N   0  0  0  0  0  0  0  0  0  0  0  0
    9.1073   11.0902   24.5610 C   0  0  0  0  0  0  0  0  0  0  0  0
    9.7677   11.6388   23.3844 C   0  0  0  0  0  0  0  0  0  0  0  0
   10.7432   12.7589   23.6890 C   0  0  0  0  0  0  0  0  0  0  0  0
   11.0719   13.0819   24.7616 O   0  0  0  0  0  0  0  0  0  0  0  0
   11.0741   13.3811   22.3054 N   0  0  0  0  0  0  0  0  0  0  0  0
   11.9474   14.4629   21.9563 C   0  0  0  0  0  0  0  0  0  0  0  0
   11.4026   15.0596   20.7082 C   0  0  0  0  0  0  0  0  0  0  0  0
   11.7819   14.8652   19.3956 C   0  0  0  0  0  0  0  0  0  0  0  0
   10.9578   15.6685   18.6515 N   0  0  0  0  0  0  0  0  0  0  0  0
   10.1244   16.3083   19.5228 C   0  0  0  0  0  0  0  0  0  0  0  0
   10.3250   15.9141   20.7577 N   0  0  0  0  0  0  0  0  0  0  0  0
  1  2  3  0
  2  3  1  0
  3  4  1  0
  4  5  2  0
  4  6  1  0
  6  7  1  0
  7  8  1  0
  8  9  2  0
  9 10  1  0
 10 11  1  0
 11 12  2  0
 12  8  1  0
M  END
>  <inchikey>  (445) 
KPKZQXXJAPWOPZ-UHFFFAOYSA-N

>  <energy_score>  (445) 
-5.583914

>  <subsites>  (445) 
1 - Active Site

>  <alias>  (445) 
C2304-P137

>  <tags>  (445) 
openbind_a71ev2a_c1_scaffolds,BulkDock Fragalysis export,openbind_a71ev2a_c1_knitwork_impure,fragmenstein_placed

>  <distance_score>  (445) 
0.886321

>  <placement_batch>  (445) 
openbind_a71ev2a_c1_knitwork_impure

>  <name>  (445) 
C2304-P137

>  <ref_mols>  (445) 
A2972a,A1778a

>  <smiles>  (445) 
N#CCC(=O)NCc1c[nH]cn1

>  <HIPPO Compound ID>  (445) 
8031

>  <HIPPO Pose ID>  (445) 
427677

>  <ref_pdb>  (445) 
A5427a

$$$$
C2384-P423
     RDKit          3D

 15 15  0  0  0  0  0  0  0  0999 V2000
   11.7166   16.1008   22.3645 C   0  0  0  0  0  0  0  0  0  0  0  0
   10.4896   15.6825   23.1539 C   0  0  0  0  0  0  0  0  0  0  0  0
    9.6914   14.5837   22.4439 C   0  0  2  0  0  0  0  0  0  0  0  0
    9.3196   15.0567   21.0348 C   0  0  0  0  0  0  0  0  0  0  0  0
    8.4183   14.1444   23.1851 C   0  0  0  0  0  0  0  0  0  0  0  0
    7.3236   14.2501   22.6186 O   0  0  0  0  0  0  0  0  0  0  0  0
    8.4927   13.5616   24.6307 C   0  0  0  0  0  0  0  0  0  0  0  0
    9.8095   12.8016   24.8565 C   0  0  0  0  0  0  0  0  0  0  0  0
    8.4694   14.7656   25.6029 C   0  0  0  0  0  0  0  0  0  0  0  0
    7.2247   12.5935   24.8292 C   0  0  2  0  0  0  0  0  0  0  0  0
    6.2352   13.0594   25.9156 C   0  0  0  0  0  0  0  0  0  0  0  0
    5.0216   12.1444   26.0002 C   0  0  0  0  0  0  0  0  0  0  0  0
    5.4291   10.6897   26.1572 C   0  0  0  0  0  0  0  0  0  0  0  0
    6.3787   10.2582   25.1450 N   0  0  0  0  0  0  0  0  0  0  0  0
    7.5634   11.1028   25.0470 C   0  0  0  0  0  0  0  0  0  0  0  0
  1  2  1  0
  2  3  1  0
  3  4  1  6
  3  5  1  0
  5  6  2  0
  5  7  1  0
  7  8  1  0
  7  9  1  0
 10  7  1  1
 10 11  1  0
 11 12  1  0
 12 13  1  0
 13 14  1  0
 14 15  1  0
 15 10  1  0
M  END
>  <inchikey>  (446) 
OLOCMQZJQFEPLN-UHFFFAOYSA-N

>  <energy_score>  (446) 
-45.875923

>  <subsites>  (446) 
1 - Active Site

>  <alias>  (446) 
C2384-P423

>  <tags>  (446) 
openbind_a71ev2a_c1_scaffolds,BulkDock Fragalysis export,openbind_a71ev2a_c1_knitwork_impure,fragmenstein_placed

>  <distance_score>  (446) 
0.902139

>  <placement_batch>  (446) 
openbind_a71ev2a_c1_knitwork_impure

>  <name>  (446) 
C2384-P423

>  <ref_mols>  (446) 
A1779a,A4650a

>  <smiles>  (446) 
CC[C@H](C)C(=O)C(C)(C)[C@@H]1CCCNC1

>  <HIPPO Compound ID>  (446) 
43738

>  <HIPPO Pose ID>  (446) 
427731

>  <ref_pdb>  (446) 
A5427a

$$$$
C2410-P423
     RDKit          3D

 14 14  0  0  0  0  0  0  0  0999 V2000
   11.6048   15.2187   22.9622 C   0  0  0  0  0  0  0  0  0  0  0  0
   10.3872   16.0570   23.2681 C   0  0  0  0  0  0  0  0  0  0  0  0
   10.2967   16.2546   24.6087 F   0  0  0  0  0  0  0  0  0  0  0  0
   10.5856   17.2948   22.7367 F   0  0  0  0  0  0  0  0  0  0  0  0
    9.0747   15.5094   22.7235 C   0  0  0  0  0  0  0  0  0  0  0  0
    8.6408   14.1252   23.2159 C   0  0  0  0  0  0  0  0  0  0  0  0
    8.5187   14.0250   24.7374 C   0  0  2  0  0  0  0  0  0  0  0  0
    9.7699   13.9017   25.2846 F   0  0  0  0  0  0  0  0  0  0  0  0
    7.7082   12.8210   25.2463 C   0  0  1  0  0  0  0  0  0  0  0  0
    6.2192   13.1371   25.3820 C   0  0  0  0  0  0  0  0  0  0  0  0
    5.5356   12.0389   26.1880 C   0  0  0  0  0  0  0  0  0  0  0  0
    5.8720   10.6507   25.6618 C   0  0  0  0  0  0  0  0  0  0  0  0
    7.3130   10.4571   25.1969 C   0  0  0  0  0  0  0  0  0  0  0  0
    7.8562   11.5892   24.4510 N   0  0  0  0  0  0  0  0  0  0  0  0
  1  2  1  0
  2  3  1  0
  2  4  1  0
  2  5  1  0
  5  6  1  0
  6  7  1  0
  7  8  1  1
  7  9  1  0
  9 10  1  6
 10 11  1  0
 11 12  1  0
 12 13  1  0
 13 14  1  0
 14  9  1  0
M  END
>  <inchikey>  (447) 
QEGXPACMNFTTCL-UHFFFAOYSA-N

>  <energy_score>  (447) 
-42.307629

>  <subsites>  (447) 
1 - Active Site

>  <alias>  (447) 
C2410-P423

>  <tags>  (447) 
openbind_a71ev2a_c1_scaffolds,BulkDock Fragalysis export,openbind_a71ev2a_c1_knitwork_impure,fragmenstein_placed

>  <distance_score>  (447) 
0.985827

>  <placement_batch>  (447) 
openbind_a71ev2a_c1_knitwork_impure

>  <name>  (447) 
C2410-P423

>  <ref_mols>  (447) 
A1779a,A4650a

>  <smiles>  (447) 
CC(F)(F)CC[C@H](F)[C@H]1CCCCN1

>  <HIPPO Compound ID>  (447) 
8874

>  <HIPPO Pose ID>  (447) 
427736

>  <ref_pdb>  (447) 
A5427a

$$$$
C7192-P364
     RDKit          3D

  9  9  0  0  0  0  0  0  0  0999 V2000
    7.7205   13.3806   22.3431 O   0  0  0  0  0  0  0  0  0  0  0  0
    8.5435   14.1416   22.8501 C   0  0  0  0  0  0  0  0  0  0  0  0
   10.0077   13.8016   22.9797 C   0  0  0  0  0  0  0  0  0  0  0  0
   10.3164   13.2658   24.3701 C   0  0  0  0  0  0  0  0  0  0  0  0
    9.3654   12.1844   24.7446 C   0  0  0  0  0  0  0  0  0  0  0  0
    9.3774   10.8244   24.2984 C   0  0  0  0  0  0  0  0  0  0  0  0
    8.3971   10.0655   24.7877 N   0  0  0  0  0  0  0  0  0  0  0  0
    7.3991   11.1325   25.6032 S   0  0  0  0  0  0  0  0  0  0  0  0
    8.3407   12.5028   25.5434 N   0  0  0  0  0  0  0  0  0  0  0  0
  1  2  2  0
  2  3  1  0
  3  4  1  0
  4  5  1  0
  5  6  1  0
  6  7  2  0
  7  8  1  0
  8  9  1  0
  9  5  2  0
M  END
>  <inchikey>  (448) 
REDBGCCRMBTLLG-UHFFFAOYSA-N

>  <energy_score>  (448) 
-15.7134

>  <subsites>  (448) 
1 - Active Site

>  <alias>  (448) 
C7192-P364

>  <tags>  (448) 
openbind_a71ev2a_c1_scaffolds,BulkDock Fragalysis export,openbind_a71ev2a_c1_knitwork_impure,fragmenstein_placed

>  <distance_score>  (448) 
0.909339

>  <placement_batch>  (448) 
openbind_a71ev2a_c1_knitwork_impure

>  <name>  (448) 
C7192-P364

>  <ref_mols>  (448) 
A4445b,A1068a

>  <smiles>  (448) 
O=CCCc1cnsn1

>  <HIPPO Compound ID>  (448) 
2344

>  <HIPPO Pose ID>  (448) 
427915

>  <ref_pdb>  (448) 
A5427a

$$$$
C2059-P257
     RDKit          3D

 15 17  0  0  0  0  0  0  0  0999 V2000
    8.5439   13.0055   24.6683 C   0  0  0  0  0  0  0  0  0  0  0  0
    7.5951   12.9248   25.5734 N   0  0  0  0  0  0  0  0  0  0  0  0
    6.7829   13.9866   25.3028 C   0  0  0  0  0  0  0  0  0  0  0  0
    7.2541   14.7316   24.2394 C   0  0  0  0  0  0  0  0  0  0  0  0
    8.4070   14.1109   23.8508 N   0  0  0  0  0  0  0  0  0  0  0  0
    9.4406   14.4939   22.9003 C   0  0  0  0  0  0  0  0  0  0  0  0
   10.6054   15.1798   23.6236 C   0  0  0  0  0  0  0  0  0  0  0  0
   11.7610   15.3565   22.6512 C   0  0  0  0  0  0  0  0  0  0  0  0
   11.3598   16.1551   21.5056 N   0  0  0  0  0  0  0  0  0  0  0  0
   10.2417   15.5557   20.7718 C   0  0  0  0  0  0  0  0  0  0  0  0
    9.0314   15.3274   21.6824 C   0  0  0  0  0  0  0  0  0  0  0  0
    6.6176   15.9726   23.7212 C   0  0  0  0  0  0  0  0  0  0  0  0
    5.2020   16.1247   24.3174 C   0  0  0  0  0  0  0  0  0  0  0  0
    5.1204   15.7551   25.8070 C   0  0  0  0  0  0  0  0  0  0  0  0
    5.5438   14.2975   26.0566 C   0  0  0  0  0  0  0  0  0  0  0  0
  1  2  2  0
  2  3  1  0
  3  4  2  0
  4  5  1  0
  5  6  1  0
  6  7  1  0
  7  8  1  0
  8  9  1  0
  9 10  1  0
 10 11  1  0
  4 12  1  0
 12 13  1  0
 13 14  1  0
 14 15  1  0
  5  1  1  0
 11  6  1  0
 15  3  1  0
M  END
>  <inchikey>  (449) 
FCBNDCMPKDFMCI-UHFFFAOYSA-N

>  <energy_score>  (449) 
-40.666334

>  <subsites>  (449) 
1 - Active Site

>  <alias>  (449) 
C2059-P257

>  <tags>  (449) 
openbind_a71ev2a_c1_scaffolds,BulkDock Fragalysis export,openbind_a71ev2a_c1_knitwork_impure,fragmenstein_placed

>  <distance_score>  (449) 
0.959738

>  <placement_batch>  (449) 
openbind_a71ev2a_c1_knitwork_impure

>  <name>  (449) 
C2059-P257

>  <ref_mols>  (449) 
A3986b,A3371a

>  <smiles>  (449) 
c1nc2c(n1C1CCNCC1)CCCC2

>  <HIPPO Compound ID>  (449) 
5444

>  <HIPPO Pose ID>  (449) 
428317

>  <ref_pdb>  (449) 
A5427a

$$$$
C6703-P137
     RDKit          3D

 15 15  0  0  0  0  0  0  0  0999 V2000
   10.3222   13.9620   25.1393 C   0  0  0  0  0  0  0  0  0  0  0  0
   10.6656   13.0175   23.9853 C   0  0  0  0  0  0  0  0  0  0  0  0
   12.1393   12.6108   24.1140 C   0  0  0  0  0  0  0  0  0  0  0  0
   10.4080   13.6810   22.6235 C   0  0  0  0  0  0  0  0  0  0  0  0
   11.3896   14.7440   22.1987 C   0  0  0  0  0  0  0  0  0  0  0  0
   12.1615   15.2720   22.9853 O   0  0  0  0  0  0  0  0  0  0  0  0
   11.3069   15.0962   20.8237 C   0  0  0  0  0  0  0  0  0  0  0  0
   12.0086   14.5718   19.7680 C   0  0  0  0  0  0  0  0  0  0  0  0
   11.5791   15.1049   18.5965 N   0  0  0  0  0  0  0  0  0  0  0  0
   10.6656   15.9931   18.9246 C   0  0  0  0  0  0  0  0  0  0  0  0
   10.4673   16.0300   20.2737 N   0  0  0  0  0  0  0  0  0  0  0  0
    9.7206   11.8078   24.0434 C   0  0  0  0  0  0  0  0  0  0  0  0
   10.0567   10.8644   23.1421 F   0  0  0  0  0  0  0  0  0  0  0  0
    8.4461   12.1785   23.7906 F   0  0  0  0  0  0  0  0  0  0  0  0
    9.6946   11.2249   25.2575 F   0  0  0  0  0  0  0  0  0  0  0  0
  1  2  1  0
  2  3  1  0
  2  4  1  0
  4  5  1  0
  5  6  2  0
  5  7  1  0
  7  8  2  0
  8  9  1  0
  9 10  2  0
 10 11  1  0
  2 12  1  0
 12 13  1  0
 12 14  1  0
 12 15  1  0
 11  7  1  0
M  END
>  <inchikey>  (450) 
HMWULAZTFKYULC-UHFFFAOYSA-N

>  <energy_score>  (450) 
-11.21704

>  <subsites>  (450) 
1 - Active Site

>  <alias>  (450) 
C6703-P137

>  <tags>  (450) 
openbind_a71ev2a_c1_scaffolds,BulkDock Fragalysis export,openbind_a71ev2a_c1_knitwork_impure,fragmenstein_placed

>  <distance_score>  (450) 
0.971128

>  <placement_batch>  (450) 
openbind_a71ev2a_c1_knitwork_impure

>  <name>  (450) 
C6703-P137

>  <ref_mols>  (450) 
A2972a,A1779a

>  <smiles>  (450) 
CC(C)(CC(=O)c1cnc[nH]1)C(F)(F)F

>  <HIPPO Compound ID>  (450) 
8853

>  <HIPPO Pose ID>  (450) 
428832

>  <ref_pdb>  (450) 
A5427a

$$$$
C7646-P354
     RDKit          3D

 13 14  0  0  0  0  0  0  0  0999 V2000
    5.8957   15.7969   22.0231 N   0  0  0  0  0  0  0  0  0  0  0  0
    7.3169   15.0042   22.3986 S   0  0  0  0  0  0  0  0  0  0  0  0
    8.3770   15.7833   21.8108 O   0  0  0  0  0  0  0  0  0  0  0  0
    7.0899   13.6249   22.0246 O   0  0  0  0  0  0  0  0  0  0  0  0
    7.3399   15.2293   24.1740 C   0  0  0  0  0  0  0  0  0  0  0  0
    8.6692   14.8427   24.8191 C   0  0  0  0  0  0  0  0  0  0  0  0
    9.3411   13.5532   24.3306 C   0  0  0  0  0  0  0  0  0  0  0  0
    8.7814   12.2973   24.7867 N   0  0  0  0  0  0  0  0  0  0  0  0
    9.1278   11.1798   23.8870 C   0  0  0  0  0  0  0  0  0  0  0  0
    8.1537   10.1185   24.2750 C   0  0  1  0  0  0  0  0  0  0  0  0
    7.7357    9.8064   25.6795 C   0  0  0  0  0  0  0  0  0  0  0  0
    7.0100   10.8166   24.9198 C   0  0  1  0  0  0  0  0  0  0  0  0
    7.3386   12.2547   25.0209 C   0  0  0  0  0  0  0  0  0  0  0  0
  1  2  1  0
  2  3  2  0
  2  4  2  0
  2  5  1  0
  5  6  1  0
  6  7  1  0
  7  8  1  0
  8  9  1  0
 10  9  1  1
 10 11  1  0
 12 11  1  1
 12 13  1  0
 13  8  1  0
 12 10  1  0
M  END
>  <inchikey>  (451) 
UCRHKGUMOXDCDY-UHFFFAOYSA-N

>  <energy_score>  (451) 
-74.863898

>  <subsites>  (451) 
1 - Active Site

>  <alias>  (451) 
C7646-P354

>  <tags>  (451) 
openbind_a71ev2a_c1_scaffolds,BulkDock Fragalysis export,openbind_a71ev2a_c1_knitwork_impure,fragmenstein_placed

>  <distance_score>  (451) 
0.96342

>  <placement_batch>  (451) 
openbind_a71ev2a_c1_knitwork_impure

>  <name>  (451) 
C7646-P354

>  <ref_mols>  (451) 
A4415a,A0719a

>  <smiles>  (451) 
NS(=O)(=O)CCCN1C[C@H]2C[C@H]2C1

>  <HIPPO Compound ID>  (451) 
9904

>  <HIPPO Pose ID>  (451) 
428863

>  <ref_pdb>  (451) 
A5427a

$$$$
C1595-P220
     RDKit          3D

 13 13  0  0  0  0  0  0  0  0999 V2000
    7.6178   10.8035   25.1082 C   0  0  0  0  0  0  0  0  0  0  0  0
    8.0652   11.9930   24.6908 C   0  0  0  0  0  0  0  0  0  0  0  0
    9.3089   12.1649   23.8666 C   0  0  0  0  0  0  0  0  0  0  0  0
   10.2079   13.2524   24.4424 C   0  0  0  0  0  0  0  0  0  0  0  0
   11.5068   13.3814   23.6664 C   0  0  0  0  0  0  0  0  0  0  0  0
   12.5463   13.0408   24.0635 O   0  0  0  0  0  0  0  0  0  0  0  0
   11.1120   14.0121   22.3235 N   0  0  0  0  0  0  0  0  0  0  0  0
   11.9213   14.4435   21.2250 C   0  0  0  0  0  0  0  0  0  0  0  0
   11.0189   15.2867   20.4161 C   0  0  0  0  0  0  0  0  0  0  0  0
   10.8283   15.3665   19.0606 C   0  0  0  0  0  0  0  0  0  0  0  0
    9.8605   16.2979   18.8348 O   0  0  0  0  0  0  0  0  0  0  0  0
    9.5403   16.7647   20.0692 C   0  0  0  0  0  0  0  0  0  0  0  0
   10.1422   16.1474   21.0509 N   0  0  0  0  0  0  0  0  0  0  0  0
  1  2  2  0
  2  3  1  0
  3  4  1  0
  4  5  1  0
  5  6  2  0
  5  7  1  0
  7  8  1  0
  8  9  1  0
  9 10  2  0
 10 11  1  0
 11 12  1  0
 12 13  2  0
 13  9  1  0
M  END
>  <inchikey>  (452) 
WYESEHOBLJZBFR-UHFFFAOYSA-N

>  <energy_score>  (452) 
-10.95524

>  <subsites>  (452) 
1 - Active Site

>  <alias>  (452) 
C1595-P220

>  <tags>  (452) 
openbind_a71ev2a_c1_scaffolds,BulkDock Fragalysis export,openbind_a71ev2a_c1_knitwork_impure,fragmenstein_placed

>  <distance_score>  (452) 
0.932706

>  <placement_batch>  (452) 
openbind_a71ev2a_c1_knitwork_impure

>  <name>  (452) 
C1595-P220

>  <ref_mols>  (452) 
A1778a,A3568a

>  <smiles>  (452) 
C=CCCC(=O)NCc1cocn1

>  <HIPPO Compound ID>  (452) 
3260

>  <HIPPO Pose ID>  (452) 
429201

>  <ref_pdb>  (452) 
A5427a

$$$$
C1627-P220
     RDKit          3D

 16 16  0  0  0  0  0  0  0  0999 V2000
    6.1176   10.9512   26.0363 C   0  0  0  0  0  0  0  0  0  0  0  0
    7.4243   10.8940   25.3257 C   0  0  0  0  0  0  0  0  0  0  0  0
    7.7885   11.7682   24.3820 C   0  0  0  0  0  0  0  0  0  0  0  0
    9.1523   11.8015   23.7681 C   0  0  0  0  0  0  0  0  0  0  0  0
    9.7356   13.2106   23.8047 C   0  0  1  0  0  0  0  0  0  0  0  0
    9.9371   13.8553   25.1646 C   0  0  0  0  0  0  0  0  0  0  0  0
    8.6749   14.3551   25.8512 C   0  0  0  0  0  0  0  0  0  0  0  0
   11.1359   13.2037   23.1899 C   0  0  0  0  0  0  0  0  0  0  0  0
   12.0625   12.6626   23.6341 O   0  0  0  0  0  0  0  0  0  0  0  0
   11.0134   14.1248   21.9792 N   0  0  0  0  0  0  0  0  0  0  0  0
   11.9766   14.5029   21.0036 C   0  0  0  0  0  0  0  0  0  0  0  0
   11.1475   15.3878   20.1708 C   0  0  0  0  0  0  0  0  0  0  0  0
   10.8413   15.3379   18.8407 C   0  0  0  0  0  0  0  0  0  0  0  0
    9.8403   16.2317   18.6195 O   0  0  0  0  0  0  0  0  0  0  0  0
    9.6450   16.8410   19.8168 C   0  0  0  0  0  0  0  0  0  0  0  0
   10.3524   16.3405   20.7924 N   0  0  0  0  0  0  0  0  0  0  0  0
  1  2  1  0
  2  3  2  3
  3  4  1  0
  5  4  1  1
  5  6  1  0
  6  7  1  0
  5  8  1  0
  8  9  2  0
  8 10  1  0
 10 11  1  0
 11 12  1  0
 12 13  2  0
 13 14  1  0
 14 15  1  0
 15 16  2  0
 16 12  1  0
M  END
>  <inchikey>  (453) 
ZSLFMECWUGWMJH-UHFFFAOYSA-N

>  <energy_score>  (453) 
-2.878621

>  <subsites>  (453) 
1 - Active Site

>  <alias>  (453) 
C1627-P220

>  <tags>  (453) 
openbind_a71ev2a_c1_scaffolds,BulkDock Fragalysis export,openbind_a71ev2a_c1_knitwork_impure,fragmenstein_placed

>  <distance_score>  (453) 
0.960922

>  <placement_batch>  (453) 
openbind_a71ev2a_c1_knitwork_impure

>  <name>  (453) 
C1627-P220

>  <ref_mols>  (453) 
A1778a,A3568a

>  <smiles>  (453) 
CC=CC[C@@H](CC)C(=O)NCc1cocn1

>  <HIPPO Compound ID>  (453) 
3300

>  <HIPPO Pose ID>  (453) 
429214

>  <ref_pdb>  (453) 
A5427a

$$$$
C12320-P183
     RDKit          3D

 12 12  0  0  0  0  0  0  0  0999 V2000
    6.9161   15.1751   26.6693 C   0  0  0  0  0  0  0  0  0  0  0  0
    7.7170   14.7225   25.4647 C   0  0  0  0  0  0  0  0  0  0  0  0
    6.8820   14.7432   24.1926 C   0  0  0  0  0  0  0  0  0  0  0  0
    7.7309   14.1849   22.7076 S   0  0  0  0  0  0  0  0  0  0  0  0
    8.3087   15.3149   22.0215 O   0  0  0  0  0  0  0  0  0  0  0  0
    6.8674   13.2725   21.9911 O   0  0  0  0  0  0  0  0  0  0  0  0
    9.0456   13.3058   23.2529 N   0  0  0  0  0  0  0  0  0  0  0  0
    8.9572   11.9761   23.6491 C   0  0  0  0  0  0  0  0  0  0  0  0
    8.0108   11.4026   24.5476 C   0  0  0  0  0  0  0  0  0  0  0  0
    8.2280   10.0489   24.6832 C   0  0  0  0  0  0  0  0  0  0  0  0
    9.4793    9.5942   23.6121 S   0  0  0  0  0  0  0  0  0  0  0  0
    9.8743   11.1425   23.1823 N   0  0  0  0  0  0  0  0  0  0  0  0
  1  2  1  0
  2  3  1  0
  3  4  1  0
  4  5  2  0
  4  6  2  0
  4  7  1  0
  7  8  1  0
  8  9  1  0
  9 10  2  0
 10 11  1  0
 11 12  1  0
 12  8  2  0
M  END
>  <inchikey>  (454) 
FDDRMMFQTUMLQU-UHFFFAOYSA-N

>  <energy_score>  (454) 
-37.946336

>  <subsites>  (454) 
1 - Active Site

>  <alias>  (454) 
C12320-P183

>  <tags>  (454) 
openbind_a71ev2a_c1_scaffolds,BulkDock Fragalysis export,openbind_a71ev2a_c1_knitwork_impure,fragmenstein_placed

>  <distance_score>  (454) 
0.829455

>  <placement_batch>  (454) 
openbind_a71ev2a_c1_knitwork_impure

>  <name>  (454) 
C12320-P183

>  <ref_mols>  (454) 
A0719a,A3436a

>  <smiles>  (454) 
CCCS(=O)(=O)Nc1ccsn1

>  <HIPPO Compound ID>  (454) 
5645

>  <HIPPO Pose ID>  (454) 
429396

>  <ref_pdb>  (454) 
A5427a

$$$$
C12328-P183
     RDKit          3D

 21 23  0  0  0  0  0  0  0  0999 V2000
    7.7681   15.4993   22.0454 O   0  0  0  0  0  0  0  0  0  0  0  0
    7.8219   14.3980   22.9636 S   0  0  0  0  0  0  0  0  0  0  0  0
    7.4969   13.0688   22.4926 O   0  0  0  0  0  0  0  0  0  0  0  0
    6.7099   14.7816   24.3055 C   0  0  0  0  0  0  0  0  0  0  0  0
    7.0932   14.2641   25.6929 C   0  0  0  0  0  0  0  0  0  0  0  0
    6.8024   12.7858   25.9882 C   0  0  0  0  0  0  0  0  0  0  0  0
    7.6132   11.7446   25.4065 N   0  0  0  0  0  0  0  0  0  0  0  0
    7.3664   10.4023   25.4565 C   0  0  0  0  0  0  0  0  0  0  0  0
    8.3089    9.8186   24.6401 C   0  0  0  0  0  0  0  0  0  0  0  0
    9.1115   10.8783   24.2108 C   0  0  0  0  0  0  0  0  0  0  0  0
    8.7986   12.0175   24.8405 N   0  0  0  0  0  0  0  0  0  0  0  0
    9.3199   14.3542   23.8323 N   0  0  0  0  0  0  0  0  0  0  0  0
   10.6957   13.9441   23.3692 C   0  0  1  0  0  0  0  0  0  0  0  0
   10.8103   13.2678   22.0359 C   0  0  0  0  0  0  0  0  0  0  0  0
   11.6959   14.4022   21.5098 C   0  0  1  0  0  0  0  0  0  0  0  0
   10.9268   15.2816   20.6346 N   0  0  0  0  0  0  0  0  0  0  0  0
   10.6726   14.9788   19.3392 C   0  0  0  0  0  0  0  0  0  0  0  0
    9.6281   15.7936   18.9947 C   0  0  0  0  0  0  0  0  0  0  0  0
    9.4636   16.6739   20.0699 C   0  0  0  0  0  0  0  0  0  0  0  0
   10.2984   16.3731   21.0621 N   0  0  0  0  0  0  0  0  0  0  0  0
   11.8259   14.8765   22.9541 C   0  0  0  0  0  0  0  0  0  0  0  0
  1  2  2  0
  2  3  2  0
  2  4  1  0
  4  5  1  0
  5  6  1  0
  6  7  1  0
  7  8  1  0
  8  9  2  0
  9 10  1  0
 10 11  2  0
  2 12  1  0
 13 12  1  6
 13 14  1  0
 14 15  1  0
 15 16  1  6
 16 17  1  0
 17 18  2  0
 18 19  1  0
 19 20  2  0
 15 21  1  0
 11  7  1  0
 21 13  1  0
 20 16  1  0
M  END
>  <inchikey>  (455) 
MZHCZVDDNWLPPV-UHFFFAOYSA-N

>  <energy_score>  (455) 
-22.518709

>  <subsites>  (455) 
1 - Active Site

>  <alias>  (455) 
C12328-P183

>  <tags>  (455) 
openbind_a71ev2a_c1_scaffolds,BulkDock Fragalysis export,openbind_a71ev2a_c1_knitwork_impure,fragmenstein_placed

>  <distance_score>  (455) 
0.994305

>  <placement_batch>  (455) 
openbind_a71ev2a_c1_knitwork_impure

>  <name>  (455) 
C12328-P183

>  <ref_mols>  (455) 
A0719a,A3436a

>  <smiles>  (455) 
O=S(=O)(CCCn1cccn1)N[C@H]1C[C@@H](n2cccn2)C1

>  <HIPPO Compound ID>  (455) 
2404

>  <HIPPO Pose ID>  (455) 
429400

>  <ref_pdb>  (455) 
A5427a

$$$$
C4803-P390
     RDKit          3D

 10 11  0  0  0  0  0  0  0  0999 V2000
    4.2326   15.2342   26.6096 C   0  0  0  0  0  0  0  0  0  0  0  0
    5.1557   14.3518   26.2234 C   0  0  0  0  0  0  0  0  0  0  0  0
    5.9991   14.2117   24.9665 C   0  0  0  0  0  0  0  0  0  0  0  0
    6.9465   13.4013   25.8858 C   0  0  0  0  0  0  0  0  0  0  0  0
    7.6212   12.1566   25.2506 C   0  0  0  0  0  0  0  0  0  0  0  0
    7.4357   10.8240   25.6259 C   0  0  0  0  0  0  0  0  0  0  0  0
    8.2324   10.0040   24.9435 N   0  0  0  0  0  0  0  0  0  0  0  0
    8.8877   10.8064   24.0873 N   0  0  0  0  0  0  0  0  0  0  0  0
    8.5680   12.1284   24.2546 C   0  0  0  0  0  0  0  0  0  0  0  0
    5.7581   13.1184   26.8585 C   0  0  0  0  0  0  0  0  0  0  0  0
  1  2  2  0
  2  3  1  0
  3  4  1  0
  4  5  1  0
  5  6  1  0
  6  7  2  0
  7  8  1  0
  8  9  1  0
  4 10  1  0
 10  2  1  0
  9  5  2  0
M  END
>  <inchikey>  (456) 
AIXXEJFHVOHRFJ-UHFFFAOYSA-N

>  <energy_score>  (456) 
-15.722162

>  <subsites>  (456) 
1 - Active Site

>  <alias>  (456) 
C4803-P390

>  <tags>  (456) 
openbind_a71ev2a_c1_scaffolds,BulkDock Fragalysis export,openbind_a71ev2a_c1_knitwork_impure,fragmenstein_placed

>  <distance_score>  (456) 
0.823812

>  <placement_batch>  (456) 
openbind_a71ev2a_c1_knitwork_impure

>  <name>  (456) 
C4803-P390

>  <ref_mols>  (456) 
A0556a,A4524a

>  <smiles>  (456) 
C=C1CC(c2cn[nH]c2)C1

>  <HIPPO Compound ID>  (456) 
7461

>  <HIPPO Pose ID>  (456) 
429483

>  <ref_pdb>  (456) 
A5427a

$$$$
C8152-P198
     RDKit          3D

 14 14  0  0  0  0  0  0  0  0999 V2000
    3.9982   12.2645   27.1098 C   0  0  0  0  0  0  0  0  0  0  0  0
    5.1042   11.6453   26.2817 C   0  0  0  0  0  0  0  0  0  0  0  0
    6.0130   12.6759   25.8672 O   0  0  0  0  0  0  0  0  0  0  0  0
    6.9483   12.2403   24.9716 C   0  0  0  0  0  0  0  0  0  0  0  0
    6.9687   11.1189   24.4810 O   0  0  0  0  0  0  0  0  0  0  0  0
    8.0225   13.3023   24.7177 C   0  0  2  0  0  0  0  0  0  0  0  0
    8.0419   14.3488   25.6956 O   0  0  0  0  0  0  0  0  0  0  0  0
    7.9259   13.9304   23.3151 C   0  0  0  0  0  0  0  0  0  0  0  0
    9.2196   14.1970   22.6483 N   0  0  0  0  0  0  0  0  0  0  0  0
   10.2619   14.7610   23.5144 C   0  0  0  0  0  0  0  0  0  0  0  0
   11.5874   14.8140   22.7577 C   0  0  0  0  0  0  0  0  0  0  0  0
   11.4783   15.7024   21.5302 C   0  0  0  0  0  0  0  0  0  0  0  0
   10.3154   15.2473   20.6601 C   0  0  0  0  0  0  0  0  0  0  0  0
    9.0269   15.0629   21.4674 C   0  0  0  0  0  0  0  0  0  0  0  0
  1  2  1  0
  2  3  1  0
  3  4  1  0
  4  5  2  0
  4  6  1  0
  6  7  1  1
  6  8  1  0
  8  9  1  0
  9 10  1  0
 10 11  1  0
 11 12  1  0
 12 13  1  0
 13 14  1  0
 14  9  1  0
M  END
>  <inchikey>  (457) 
YOAMNICQXAJQJO-UHFFFAOYSA-N

>  <energy_score>  (457) 
-27.987355

>  <subsites>  (457) 
1 - Active Site

>  <alias>  (457) 
C8152-P198

>  <tags>  (457) 
openbind_a71ev2a_c1_scaffolds,BulkDock Fragalysis export,openbind_a71ev2a_c1_knitwork_impure,fragmenstein_placed

>  <distance_score>  (457) 
0.871187

>  <placement_batch>  (457) 
openbind_a71ev2a_c1_knitwork_impure

>  <name>  (457) 
C8152-P198

>  <ref_mols>  (457) 
A0719a,A3618a

>  <smiles>  (457) 
CCOC(=O)[C@H](O)CN1CCCCC1

>  <HIPPO Compound ID>  (457) 
712

>  <HIPPO Pose ID>  (457) 
430243

>  <ref_pdb>  (457) 
A4386a

$$$$
C4755-P613
     RDKit          3D

 10 11  0  0  0  0  0  0  0  0999 V2000
    7.3470   10.6469   25.5214 C   0  0  0  0  0  0  0  0  0  0  0  0
    7.8174    9.4783   25.0888 N   0  0  0  0  0  0  0  0  0  0  0  0
    8.7796    9.8265   24.2144 N   0  0  0  0  0  0  0  0  0  0  0  0
    8.9261   11.1805   24.0968 C   0  0  0  0  0  0  0  0  0  0  0  0
    7.9983   11.7652   24.9416 C   0  0  0  0  0  0  0  0  0  0  0  0
    7.7955   13.2110   25.2580 C   0  0  1  0  0  0  0  0  0  0  0  0
    7.9613   14.0536   24.0670 N   0  0  0  0  0  0  0  0  0  0  0  0
    6.6272   14.3505   23.5340 C   0  0  0  0  0  0  0  0  0  0  0  0
    5.6782   14.6664   24.6798 C   0  0  0  0  0  0  0  0  0  0  0  0
    6.1950   13.5700   26.0164 S   0  0  0  0  0  0  0  0  0  0  0  0
  1  2  2  0
  2  3  1  0
  3  4  1  0
  4  5  2  0
  6  5  1  6
  6  7  1  0
  7  8  1  0
  8  9  1  0
  9 10  1  0
  5  1  1  0
 10  6  1  0
M  END
>  <inchikey>  (458) 
CYLXWSNDBHUDSS-UHFFFAOYSA-N

>  <energy_score>  (458) 
-17.877914

>  <subsites>  (458) 
1 - Active Site

>  <alias>  (458) 
C4755-P613

>  <tags>  (458) 
openbind_a71ev2a_c1_scaffolds,BulkDock Fragalysis export,openbind_a71ev2a_c1_knitwork_impure,fragmenstein_placed

>  <distance_score>  (458) 
0.927556

>  <placement_batch>  (458) 
openbind_a71ev2a_c1_knitwork_impure

>  <name>  (458) 
C4755-P613

>  <ref_mols>  (458) 
A0556a,A5394b

>  <smiles>  (458) 
c1n[nH]cc1[C@H]1NCCS1

>  <HIPPO Compound ID>  (458) 
10704

>  <HIPPO Pose ID>  (458) 
430732

>  <ref_pdb>  (458) 
A4386a

$$$$
C4790-P329
     RDKit          3D

 10 11  0  0  0  0  0  0  0  0999 V2000
    8.0664   14.1057   24.8965 C   0  0  0  0  0  0  0  0  0  0  0  0
    7.5448   12.9452   25.3109 C   0  0  0  0  0  0  0  0  0  0  0  0
    7.9684   11.6246   25.0352 C   0  0  0  0  0  0  0  0  0  0  0  0
    7.4200   10.4183   25.5084 C   0  0  0  0  0  0  0  0  0  0  0  0
    8.0610    9.3458   25.0459 N   0  0  0  0  0  0  0  0  0  0  0  0
    9.0279    9.8629   24.2615 N   0  0  0  0  0  0  0  0  0  0  0  0
    9.0119   11.2315   24.2286 C   0  0  0  0  0  0  0  0  0  0  0  0
    6.3555   13.1544   26.2007 C   0  0  0  0  0  0  0  0  0  0  0  0
    6.0336   14.6335   25.9759 C   0  0  0  0  0  0  0  0  0  0  0  0
    7.3118   15.2735   25.4368 C   0  0  0  0  0  0  0  0  0  0  0  0
  1  2  2  0
  2  3  1  0
  3  4  1  0
  4  5  2  0
  5  6  1  0
  6  7  1  0
  2  8  1  0
  8  9  1  0
  9 10  1  0
 10  1  1  0
  7  3  2  0
M  END
>  <inchikey>  (459) 
YGPOMGOFWDKROT-UHFFFAOYSA-N

>  <energy_score>  (459) 
-12.475706

>  <subsites>  (459) 
1 - Active Site

>  <alias>  (459) 
C4790-P329

>  <tags>  (459) 
openbind_a71ev2a_c1_scaffolds,BulkDock Fragalysis export,openbind_a71ev2a_c1_knitwork_impure,fragmenstein_placed

>  <distance_score>  (459) 
0.962467

>  <placement_batch>  (459) 
openbind_a71ev2a_c1_knitwork_impure

>  <name>  (459) 
C4790-P329

>  <ref_mols>  (459) 
A4374b,A0556a

>  <smiles>  (459) 
C1=C(c2cn[nH]c2)CCC1

>  <HIPPO Compound ID>  (459) 
16329

>  <HIPPO Pose ID>  (459) 
430928

>  <ref_pdb>  (459) 
A4386a

$$$$
C10667-P136
     RDKit          3D

 14 14  0  0  0  0  0  0  0  0999 V2000
   10.9600   14.6008   25.1448 C   0  0  0  0  0  0  0  0  0  0  0  0
   11.0787   13.4539   24.1526 C   0  0  0  0  0  0  0  0  0  0  0  0
   11.3799   13.9905   22.7564 C   0  0  0  0  0  0  0  0  0  0  0  0
    9.7779   12.6519   24.2041 C   0  0  0  0  0  0  0  0  0  0  0  0
    9.8885   11.3044   23.5398 C   0  0  0  0  0  0  0  0  0  0  0  0
    8.6727   10.4027   23.6214 C   0  0  1  0  0  0  0  0  0  0  0  0
    9.1126    9.0384   23.0525 C   0  0  0  0  0  0  0  0  0  0  0  0
    7.8779   10.1826   24.9095 C   0  0  0  0  0  0  0  0  0  0  0  0
    7.7506    9.0416   25.3473 O   0  0  0  0  0  0  0  0  0  0  0  0
    7.1569   11.2448   25.5715 C   0  0  0  0  0  0  0  0  0  0  0  0
    6.7920   12.5451   25.3030 C   0  0  0  0  0  0  0  0  0  0  0  0
    6.0917   13.0833   26.3572 N   0  0  0  0  0  0  0  0  0  0  0  0
    5.9691   12.0773   27.1846 C   0  0  0  0  0  0  0  0  0  0  0  0
    6.5834   10.9365   26.7901 O   0  0  0  0  0  0  0  0  0  0  0  0
  1  2  1  0
  2  3  1  0
  2  4  1  0
  4  5  1  0
  5  6  1  0
  6  7  1  1
  6  8  1  0
  8  9  2  0
  8 10  1  0
 10 11  2  0
 11 12  1  0
 12 13  2  0
 13 14  1  0
 14 10  1  0
M  END
>  <inchikey>  (460) 
RHLZBBZPBAUQBC-UHFFFAOYSA-N

>  <energy_score>  (460) 
-19.364944

>  <subsites>  (460) 
1 - Active Site

>  <alias>  (460) 
C10667-P136

>  <tags>  (460) 
openbind_a71ev2a_c1_scaffolds,BulkDock Fragalysis export,openbind_a71ev2a_c1_knitwork_impure,fragmenstein_placed

>  <distance_score>  (460) 
0.887198

>  <placement_batch>  (460) 
openbind_a71ev2a_c1_knitwork_impure

>  <name>  (460) 
C10667-P136

>  <ref_mols>  (460) 
A2846a,A1775a

>  <smiles>  (460) 
CC(C)CC[C@@H](C)C(=O)c1cnco1

>  <HIPPO Compound ID>  (460) 
29152

>  <HIPPO Pose ID>  (460) 
431026

>  <ref_pdb>  (460) 
A4386a

$$$$
C7479-P317
     RDKit          3D

 23 24  0  0  0  0  0  0  0  0999 V2000
    3.4735   12.2774   18.1563 C   0  0  0  0  0  0  0  0  0  0  0  0
    3.4023   12.4377   19.6743 C   0  0  0  0  0  0  0  0  0  0  0  0
    2.4374   11.4196   20.2795 C   0  0  0  0  0  0  0  0  0  0  0  0
    3.0292   13.8174   20.0643 C   0  0  0  0  0  0  0  0  0  0  0  0
    2.0418   14.4053   19.3280 O   0  0  0  0  0  0  0  0  0  0  0  0
    1.9354   15.6467   19.8500 C   0  0  0  0  0  0  0  0  0  0  0  0
    2.7363   15.9004   20.8633 N   0  0  0  0  0  0  0  0  0  0  0  0
    3.4188   14.7129   21.0458 C   0  0  0  0  0  0  0  0  0  0  0  0
    4.3762   14.5331   22.1802 C   0  0  0  0  0  0  0  0  0  0  0  0
    5.5529   15.3594   21.9346 N   0  0  0  0  0  0  0  0  0  0  0  0
    7.0417   14.7259   22.3602 S   0  0  0  0  0  0  0  0  0  0  0  0
    6.9387   13.3345   21.9431 O   0  0  0  0  0  0  0  0  0  0  0  0
    7.9519   15.5241   21.5661 O   0  0  0  0  0  0  0  0  0  0  0  0
    6.9589   14.9895   23.8683 N   0  0  0  0  0  0  0  0  0  0  0  0
    8.3264   14.8232   24.5569 S   0  0  2  0  0  0  0  0  0  0  0  0
    8.0955   15.3790   26.2325 C   0  0  0  0  0  0  0  0  0  0  0  0
    9.5475   15.4612   24.1094 O   0  0  0  0  0  0  0  0  0  0  0  0
    8.7344   13.0875   24.8152 C   0  0  0  0  0  0  0  0  0  0  0  0
    9.5254   12.5356   23.6353 C   0  0  0  0  0  0  0  0  0  0  0  0
    9.8028   11.0498   23.7102 C   0  0  0  0  0  0  0  0  0  0  0  0
    8.7546   10.1640   24.3477 C   0  0  0  0  0  0  0  0  0  0  0  0
    7.8909   10.8045   25.4174 C   0  0  0  0  0  0  0  0  0  0  0  0
    7.5110   12.2415   25.1259 C   0  0  0  0  0  0  0  0  0  0  0  0
  1  2  1  0
  2  3  1  0
  2  4  1  0
  4  5  1  0
  5  6  1  0
  6  7  2  0
  7  8  1  0
  8  9  1  0
  9 10  1  0
 10 11  1  0
 11 12  2  0
 11 13  2  0
 11 14  1  0
 14 15  2  0
 15 16  1  1
 15 17  2  0
 15 18  1  0
 18 19  1  0
 19 20  1  0
 20 21  1  0
 21 22  1  0
 22 23  1  0
  8  4  2  0
 23 18  1  0
M  END
>  <inchikey>  (461) 
ZFTJJBVPUXZCMY-UHFFFAOYSA-N

>  <energy_score>  (461) 
-238.549754

>  <subsites>  (461) 
1 - Active Site

>  <alias>  (461) 
C7479-P317

>  <tags>  (461) 
openbind_a71ev2a_c1_scaffolds,BulkDock Fragalysis export,openbind_a71ev2a_c1_knitwork_impure,fragmenstein_placed

>  <distance_score>  (461) 
0.936971

>  <placement_batch>  (461) 
openbind_a71ev2a_c1_knitwork_impure

>  <name>  (461) 
C7479-P317

>  <ref_mols>  (461) 
A3623a,A4343b

>  <smiles>  (461) 
CC(C)c1ocnc1CNS(=O)(=O)N=[S@](C)(=O)C1CCCCC1

>  <HIPPO Compound ID>  (461) 
22223

>  <HIPPO Pose ID>  (461) 
431813

>  <ref_pdb>  (461) 
A4386a

$$$$
C1405-P176
     RDKit          3D

 18 18  0  0  0  0  0  0  0  0999 V2000
   12.2362   13.2999   23.8157 N   0  0  0  0  0  0  0  0  0  0  0  0
   12.1089   13.8746   22.8144 C   0  0  0  0  0  0  0  0  0  0  0  0
   11.9958   14.5129   21.5030 C   0  0  0  0  0  0  0  0  0  0  0  0
   10.5865   14.9799   21.1378 C   0  0  2  0  0  0  0  0  0  0  0  0
    9.5455   14.1625   21.7935 N   0  0  0  0  0  0  0  0  0  0  0  0
    9.1479   14.0483   23.2901 C   0  0  0  0  0  0  0  0  0  0  0  0
    9.6324   14.5240   24.2397 O   0  0  0  0  0  0  0  0  0  0  0  0
    7.9927   13.0596   23.3900 C   0  0  0  0  0  0  0  0  0  0  0  0
    7.5227   12.9245   24.8547 C   0  0  0  0  0  0  0  0  0  0  0  0
    7.0275   11.5114   25.1658 C   0  0  0  0  0  0  0  0  0  0  0  0
    6.4024   11.4216   26.5545 C   0  0  0  0  0  0  0  0  0  0  0  0
    5.3736   12.4290   26.7934 N   0  0  0  0  0  0  0  0  0  0  0  0
    5.9062   13.7811   26.5985 C   0  0  0  0  0  0  0  0  0  0  0  0
    6.4444   13.9663   25.1829 C   0  0  0  0  0  0  0  0  0  0  0  0
   10.5248   14.9967   19.5981 C   0  0  0  0  0  0  0  0  0  0  0  0
   10.6319   13.7582   19.0842 F   0  0  0  0  0  0  0  0  0  0  0  0
    9.3814   15.5569   19.1658 F   0  0  0  0  0  0  0  0  0  0  0  0
   11.5354   15.6641   19.0407 F   0  0  0  0  0  0  0  0  0  0  0  0
  1  2  3  0
  2  3  1  0
  4  3  1  6
  4  5  1  0
  5  6  1  0
  6  7  2  0
  6  8  1  0
  8  9  1  0
  9 10  1  0
 10 11  1  0
 11 12  1  0
 12 13  1  0
 13 14  1  0
  4 15  1  0
 15 16  1  0
 15 17  1  0
 15 18  1  0
 14  9  1  0
M  END
>  <inchikey>  (462) 
RHQJYRUFYUHRDN-UHFFFAOYSA-N

>  <energy_score>  (462) 
-0.355729

>  <subsites>  (462) 
1 - Active Site

>  <alias>  (462) 
C1405-P176

>  <tags>  (462) 
openbind_a71ev2a_c1_scaffolds,BulkDock Fragalysis export,openbind_a71ev2a_c1_knitwork_impure,fragmenstein_placed

>  <distance_score>  (462) 
0.888505

>  <placement_batch>  (462) 
openbind_a71ev2a_c1_knitwork_impure

>  <name>  (462) 
C1405-P176

>  <ref_mols>  (462) 
A3392a,A4706a

>  <smiles>  (462) 
N#CC[C@H](NC(=O)CC1CCNCC1)C(F)(F)F

>  <HIPPO Compound ID>  (462) 
9207

>  <HIPPO Pose ID>  (462) 
432463

>  <ref_pdb>  (462) 
A4386a

$$$$
C3803-P457
     RDKit          3D

 11 12  0  0  0  0  0  0  0  0999 V2000
    7.1603   10.2118   25.1484 C   0  0  0  0  0  0  0  0  0  0  0  0
    7.9984    9.3180   24.6323 N   0  0  0  0  0  0  0  0  0  0  0  0
    8.8961   10.0611   23.9665 N   0  0  0  0  0  0  0  0  0  0  0  0
    8.6447   11.4002   24.0578 C   0  0  0  0  0  0  0  0  0  0  0  0
    7.5087   11.5451   24.8347 C   0  0  0  0  0  0  0  0  0  0  0  0
    6.7838   12.7993   25.2242 C   0  0  1  0  0  0  0  0  0  0  0  0
    5.7316   12.5579   26.3264 C   0  0  0  0  0  0  0  0  0  0  0  0
    5.0972   13.8605   26.8081 C   0  0  0  0  0  0  0  0  0  0  0  0
    6.1605   14.8951   27.1571 C   0  0  0  0  0  0  0  0  0  0  0  0
    7.1696   15.0522   26.0232 C   0  0  0  0  0  0  0  0  0  0  0  0
    7.7849   13.7724   25.6800 N   0  0  0  0  0  0  0  0  0  0  0  0
  1  2  2  0
  2  3  1  0
  3  4  1  0
  4  5  2  0
  6  5  1  1
  6  7  1  0
  7  8  1  0
  8  9  1  0
  9 10  1  0
 10 11  1  0
  5  1  1  0
 11  6  1  0
M  END
>  <inchikey>  (463) 
WSZYMCQJXAPKIF-UHFFFAOYSA-N

>  <energy_score>  (463) 
-20.39798

>  <subsites>  (463) 
1 - Active Site

>  <alias>  (463) 
C3803-P457

>  <tags>  (463) 
openbind_a71ev2a_c1_scaffolds,BulkDock Fragalysis export,openbind_a71ev2a_c1_knitwork_impure,fragmenstein_placed

>  <distance_score>  (463) 
0.966999

>  <placement_batch>  (463) 
openbind_a71ev2a_c1_knitwork_impure

>  <name>  (463) 
C3803-P457

>  <ref_mols>  (463) 
A4751a,A0556a

>  <smiles>  (463) 
c1n[nH]cc1[C@H]1CCCCN1

>  <HIPPO Compound ID>  (463) 
8906

>  <HIPPO Pose ID>  (463) 
432569

>  <ref_pdb>  (463) 
A4386a

$$$$
C4784-P457
     RDKit          3D

  9 10  0  0  0  0  0  0  0  0999 V2000
    7.2515   10.3225   25.1167 C   0  0  0  0  0  0  0  0  0  0  0  0
    7.3735   11.6915   25.1771 C   0  0  0  0  0  0  0  0  0  0  0  0
    8.5599   11.9730   24.4748 C   0  0  0  0  0  0  0  0  0  0  0  0
    9.1415   13.4058   24.2809 C   0  0  0  0  0  0  0  0  0  0  0  0
   10.3760   13.5289   23.3473 C   0  0  0  0  0  0  0  0  0  0  0  0
    9.7486   14.8151   22.7886 C   0  0  0  0  0  0  0  0  0  0  0  0
    8.3822   14.2760   23.2529 C   0  0  0  0  0  0  0  0  0  0  0  0
    9.1392   10.8670   24.0096 N   0  0  0  0  0  0  0  0  0  0  0  0
    8.3194    9.8769   24.3888 N   0  0  0  0  0  0  0  0  0  0  0  0
  1  2  2  0
  2  3  1  0
  3  4  1  0
  4  5  1  0
  5  6  1  0
  6  7  1  0
  3  8  2  0
  8  9  1  0
  9  1  1  0
  7  4  1  0
M  END
>  <inchikey>  (464) 
OBMSQRRNSRJRBN-UHFFFAOYSA-N

>  <energy_score>  (464) 
-17.012317

>  <subsites>  (464) 
1 - Active Site

>  <alias>  (464) 
C4784-P457

>  <tags>  (464) 
openbind_a71ev2a_c1_scaffolds,BulkDock Fragalysis export,openbind_a71ev2a_c1_knitwork_impure,fragmenstein_placed

>  <distance_score>  (464) 
0.958272

>  <placement_batch>  (464) 
openbind_a71ev2a_c1_knitwork_impure

>  <name>  (464) 
C4784-P457

>  <ref_mols>  (464) 
A4751a,A0556a

>  <smiles>  (464) 
c1cc(C2CCC2)n[nH]1

>  <HIPPO Compound ID>  (464) 
2514

>  <HIPPO Pose ID>  (464) 
432578

>  <ref_pdb>  (464) 
A4386a

$$$$
C961-P278
     RDKit          3D

 18 20  0  0  0  0  0  0  0  0999 V2000
   25.8870   12.7000   -2.3073 O   0  0  0  0  0  0  0  0  0  0  0  0
   24.9571   12.2655   -1.7454 C   0  0  0  0  0  0  0  0  0  0  0  0
   23.5980   11.7398   -2.2988 N   0  0  0  0  0  0  0  0  0  0  0  0
   23.1718   11.5645   -3.5876 N   0  0  0  0  0  0  0  0  0  0  0  0
   22.7346   10.2959   -3.8614 C   0  0  0  0  0  0  0  0  0  0  0  0
   22.2523    9.4390   -3.0177 N   0  0  0  0  0  0  0  0  0  0  0  0
   21.9828    8.1646   -3.7116 C   0  0  0  0  0  0  0  0  0  0  0  0
   21.7295    8.4213   -5.1863 C   0  0  0  0  0  0  0  0  0  0  0  0
   22.8303    9.8010   -5.5364 S   0  0  0  0  0  0  0  0  0  0  0  0
   24.9386   12.0148   -0.2283 C   0  0  1  0  0  0  0  0  0  0  0  0
   26.3068   12.2912    0.4196 C   0  0  0  0  0  0  0  0  0  0  0  0
   26.2233   12.1254    1.9410 C   0  0  0  0  0  0  0  0  0  0  0  0
   25.2045   13.0892    2.5546 C   0  0  0  0  0  0  0  0  0  0  0  0
   24.0158   13.2310    1.7471 N   0  0  0  0  0  0  0  0  0  0  0  0
   22.8571   13.8542    2.0743 C   0  0  0  0  0  0  0  0  0  0  0  0
   22.0368   13.8042    1.0486 N   0  0  0  0  0  0  0  0  0  0  0  0
   22.6755   13.1308    0.0304 N   0  0  0  0  0  0  0  0  0  0  0  0
   23.8788   12.8070    0.4540 C   0  0  0  0  0  0  0  0  0  0  0  0
  1  2  2  0
  2  3  1  0
  3  4  1  0
  4  5  1  0
  5  6  2  0
  6  7  1  0
  7  8  1  0
  8  9  1  0
 10  2  1  6
 10 11  1  0
 11 12  1  0
 12 13  1  0
 13 14  1  0
 14 15  1  0
 15 16  2  0
 16 17  1  0
 17 18  2  0
  9  5  1  0
 18 10  1  0
 18 14  1  0
M  END
>  <inchikey>  (465) 
GFCHJLUTXGTXAR-UHFFFAOYSA-N

>  <energy_score>  (465) 
-51.439935

>  <subsites>  (465) 
6 - A0486/A/147/1,1 - Active Site

>  <alias>  (465) 
C961-P278

>  <tags>  (465) 
openbind_a71ev2a_c1_scaffolds,BulkDock Fragalysis export,openbind_a71ev2a_c1_knitwork_impure,fragmenstein_placed

>  <distance_score>  (465) 
0.452137

>  <placement_batch>  (465) 
openbind_a71ev2a_c1_knitwork_impure

>  <name>  (465) 
C961-P278

>  <ref_mols>  (465) 
A0239a,A4035a

>  <smiles>  (465) 
O=C(NNC1=NCCS1)[C@H]1CCCn2cnnc21

>  <HIPPO Compound ID>  (465) 
1238

>  <HIPPO Pose ID>  (465) 
432630

>  <ref_pdb>  (465) 
A4386a

$$$$
C11236-P276
     RDKit          3D

 22 23  0  0  0  0  0  0  0  0999 V2000
    3.6883   12.6811   17.5078 C   0  0  0  0  0  0  0  0  0  0  0  0
    2.6114   13.4845   18.1880 C   0  0  0  0  0  0  0  0  0  0  0  0
    2.8885   13.5728   19.6294 C   0  0  0  0  0  0  0  0  0  0  0  0
    3.8800   14.1882   20.2385 N   0  0  0  0  0  0  0  0  0  0  0  0
    3.6336   13.9844   21.5822 C   0  0  0  0  0  0  0  0  0  0  0  0
    4.4563   14.5664   22.6896 C   0  0  0  0  0  0  0  0  0  0  0  0
    5.5904   15.3492   22.1888 N   0  0  0  0  0  0  0  0  0  0  0  0
    7.0957   14.6345   22.3521 S   0  0  0  0  0  0  0  0  0  0  0  0
    6.8719   13.2658   21.9165 O   0  0  0  0  0  0  0  0  0  0  0  0
    7.9189   15.4433   21.4779 O   0  0  0  0  0  0  0  0  0  0  0  0
    7.1821   14.8679   23.8693 N   0  0  0  0  0  0  0  0  0  0  0  0
    8.5382   14.4547   24.4581 S   0  0  2  0  0  0  0  0  0  0  0  0
    8.5325   15.0944   26.1233 C   0  0  0  0  0  0  0  0  0  0  0  0
    9.8185   14.8425   23.9071 O   0  0  0  0  0  0  0  0  0  0  0  0
    8.6085   12.6709   24.7563 C   0  0  0  0  0  0  0  0  0  0  0  0
    9.3463   11.9505   23.6315 C   0  0  0  0  0  0  0  0  0  0  0  0
    9.3063   10.4259   23.6658 C   0  0  0  0  0  0  0  0  0  0  0  0
    8.0766    9.7883   24.2844 C   0  0  0  0  0  0  0  0  0  0  0  0
    7.3389   10.5865   25.3429 C   0  0  0  0  0  0  0  0  0  0  0  0
    7.2401   12.0672   25.0362 C   0  0  0  0  0  0  0  0  0  0  0  0
    2.4683   13.2589   21.6995 C   0  0  0  0  0  0  0  0  0  0  0  0
    1.9862   12.9853   20.4628 O   0  0  0  0  0  0  0  0  0  0  0  0
  1  2  1  0
  2  3  1  0
  3  4  2  0
  4  5  1  0
  5  6  1  0
  6  7  1  0
  7  8  1  0
  8  9  2  0
  8 10  2  0
  8 11  1  0
 11 12  2  0
 12 13  1  1
 12 14  2  0
 12 15  1  0
 15 16  1  0
 16 17  1  0
 17 18  1  0
 18 19  1  0
 19 20  1  0
  5 21  2  0
 21 22  1  0
 22  3  1  0
 20 15  1  0
M  END
>  <inchikey>  (466) 
HWPXHJBEHCQNEL-UHFFFAOYSA-N

>  <energy_score>  (466) 
-77.152583

>  <subsites>  (466) 
1 - Active Site

>  <alias>  (466) 
C11236-P276

>  <tags>  (466) 
openbind_a71ev2a_c1_scaffolds,BulkDock Fragalysis export,openbind_a71ev2a_c1_knitwork_impure,fragmenstein_placed

>  <distance_score>  (466) 
0.982364

>  <placement_batch>  (466) 
openbind_a71ev2a_c1_knitwork_impure

>  <name>  (466) 
C11236-P276

>  <ref_mols>  (466) 
A3623a,A4032a

>  <smiles>  (466) 
CCc1nc(CNS(=O)(=O)N=[S@](C)(=O)C2CCCCC2)co1

>  <HIPPO Compound ID>  (466) 
7825

>  <HIPPO Pose ID>  (466) 
432739

>  <ref_pdb>  (466) 
A4386a

$$$$
C7646-P265
     RDKit          3D

 13 14  0  0  0  0  0  0  0  0999 V2000
    5.7710   15.8035   22.1971 N   0  0  0  0  0  0  0  0  0  0  0  0
    7.2297   15.0352   22.5011 S   0  0  0  0  0  0  0  0  0  0  0  0
    8.2569   15.8671   21.9272 O   0  0  0  0  0  0  0  0  0  0  0  0
    7.0467   13.6616   22.0829 O   0  0  0  0  0  0  0  0  0  0  0  0
    7.2887   15.1874   24.2822 C   0  0  0  0  0  0  0  0  0  0  0  0
    8.6459   14.8236   24.8803 C   0  0  0  0  0  0  0  0  0  0  0  0
    9.3361   13.5611   24.3485 C   0  0  0  0  0  0  0  0  0  0  0  0
    8.8355   12.2821   24.8145 N   0  0  0  0  0  0  0  0  0  0  0  0
    9.2181   11.1831   23.9079 C   0  0  0  0  0  0  0  0  0  0  0  0
    8.2827   10.0833   24.2874 C   0  0  1  0  0  0  0  0  0  0  0  0
    7.8767    9.7389   25.6858 C   0  0  0  0  0  0  0  0  0  0  0  0
    7.1150   10.7368   24.9430 C   0  0  1  0  0  0  0  0  0  0  0  0
    7.3962   12.1853   25.0570 C   0  0  0  0  0  0  0  0  0  0  0  0
  1  2  1  0
  2  3  2  0
  2  4  2  0
  2  5  1  0
  5  6  1  0
  6  7  1  0
  7  8  1  0
  8  9  1  0
 10  9  1  1
 10 11  1  0
 12 11  1  1
 12 13  1  0
 13  8  1  0
 12 10  1  0
M  END
>  <inchikey>  (467) 
UQJVNWDNXJUWRQ-UHFFFAOYSA-N

>  <energy_score>  (467) 
-76.022721

>  <subsites>  (467) 
1 - Active Site

>  <alias>  (467) 
C7646-P265

>  <tags>  (467) 
openbind_a71ev2a_c1_scaffolds,BulkDock Fragalysis export,openbind_a71ev2a_c1_knitwork_impure,fragmenstein_placed

>  <distance_score>  (467) 
0.959994

>  <placement_batch>  (467) 
openbind_a71ev2a_c1_knitwork_impure

>  <name>  (467) 
C7646-P265

>  <ref_mols>  (467) 
A4012b,A0719a

>  <smiles>  (467) 
NS(=O)(=O)CCCN1C[C@H]2C[C@H]2C1

>  <HIPPO Compound ID>  (467) 
934

>  <HIPPO Pose ID>  (467) 
432953

>  <ref_pdb>  (467) 
A4386a

$$$$
C7674-P265
     RDKit          3D

 13 14  0  0  0  0  0  0  0  0999 V2000
    5.4196   15.0019   21.8925 N   0  0  0  0  0  0  0  0  0  0  0  0
    6.9763   14.6160   22.4009 S   0  0  0  0  0  0  0  0  0  0  0  0
    7.8635   15.5458   21.7484 O   0  0  0  0  0  0  0  0  0  0  0  0
    7.0698   13.1978   22.1584 O   0  0  0  0  0  0  0  0  0  0  0  0
    6.8695   15.0138   24.1375 C   0  0  0  0  0  0  0  0  0  0  0  0
    8.2377   14.9896   24.8022 C   0  0  0  0  0  0  0  0  0  0  0  0
    8.5149   13.7046   25.5668 C   0  0  0  0  0  0  0  0  0  0  0  0
    8.4018   12.5044   24.7708 N   0  0  0  0  0  0  0  0  0  0  0  0
    9.5532   12.2584   23.8856 C   0  0  0  0  0  0  0  0  0  0  0  0
    9.4506   10.7650   23.5486 C   0  0  0  0  0  0  0  0  0  0  0  0
    8.7150   10.1261   24.6732 C   0  0  2  0  0  0  0  0  0  0  0  0
    7.2621   10.2601   25.0056 C   0  0  0  0  0  0  0  0  0  0  0  0
    8.2089   11.2550   25.5166 C   0  0  2  0  0  0  0  0  0  0  0  0
  1  2  1  0
  2  3  2  0
  2  4  2  0
  2  5  1  0
  5  6  1  0
  6  7  1  0
  7  8  1  0
  8  9  1  0
  9 10  1  0
 11 10  1  6
 11 12  1  0
 13 12  1  6
 13  8  1  0
 13 11  1  0
M  END
>  <inchikey>  (468) 
ILAOIAQOAHWDBJ-UHFFFAOYSA-N

>  <energy_score>  (468) 
-74.251704

>  <subsites>  (468) 
1 - Active Site

>  <alias>  (468) 
C7674-P265

>  <tags>  (468) 
openbind_a71ev2a_c1_scaffolds,BulkDock Fragalysis export,openbind_a71ev2a_c1_knitwork_impure,fragmenstein_placed

>  <distance_score>  (468) 
0.950629

>  <placement_batch>  (468) 
openbind_a71ev2a_c1_knitwork_impure

>  <name>  (468) 
C7674-P265

>  <ref_mols>  (468) 
A4012b,A0719a

>  <smiles>  (468) 
NS(=O)(=O)CCCN1CC[C@@H]2C[C@@H]21

>  <HIPPO Compound ID>  (468) 
1455

>  <HIPPO Pose ID>  (468) 
432964

>  <ref_pdb>  (468) 
A4386a

$$$$
C86465-P363
     RDKit          3D

 14 14  0  0  0  0  0  0  0  0999 V2000
    9.3249   11.3557   23.3271 C   0  0  0  0  0  0  0  0  0  0  0  0
    9.4706   12.2019   24.5656 C   0  0  0  0  0  0  0  0  0  0  0  0
    8.1581   12.1109   25.3636 C   0  0  0  0  0  0  0  0  0  0  0  0
   10.5902   11.6500   25.4005 C   0  0  0  0  0  0  0  0  0  0  0  0
    9.7697   13.6616   24.2198 C   0  0  0  0  0  0  0  0  0  0  0  0
   11.0774   13.8908   23.4525 C   0  0  0  0  0  0  0  0  0  0  0  0
   11.3371   15.3711   23.4097 C   0  0  0  0  0  0  0  0  0  0  0  0
   11.0685   16.0663   24.3933 O   0  0  0  0  0  0  0  0  0  0  0  0
   12.0099   15.9494   22.2049 C   0  0  0  0  0  0  0  0  0  0  0  0
   11.2775   15.6554   20.9604 C   0  0  0  0  0  0  0  0  0  0  0  0
   10.0162   16.1168   20.6419 C   0  0  0  0  0  0  0  0  0  0  0  0
    9.6989   15.7557   19.0115 S   0  0  0  0  0  0  0  0  0  0  0  0
   11.1786   14.9439   18.8875 C   0  0  0  0  0  0  0  0  0  0  0  0
   11.9137   14.9224   19.9728 N   0  0  0  0  0  0  0  0  0  0  0  0
  1  2  1  0
  2  3  1  0
  2  4  1  0
  2  5  1  0
  5  6  1  0
  6  7  1  0
  7  8  2  0
  7  9  1  0
  9 10  1  0
 10 11  2  0
 11 12  1  0
 12 13  1  0
 13 14  2  0
 14 10  1  0
M  END
>  <inchikey>  (469) 
FOELTRWJVGYBGD-UHFFFAOYSA-N

>  <energy_score>  (469) 
-64.76197

>  <subsites>  (469) 
1 - Active Site

>  <alias>  (469) 
C86465-P363

>  <tags>  (469) 
openbind_a71ev2a_c1_scaffolds,BulkDock Fragalysis export,openbind_a71ev2a_c1_knitwork_impure,fragmenstein_placed

>  <distance_score>  (469) 
0.883094

>  <placement_batch>  (469) 
openbind_a71ev2a_c1_knitwork_impure

>  <name>  (469) 
C86465-P363

>  <ref_mols>  (469) 
A3306a,A4445a

>  <smiles>  (469) 
CC(C)(C)CCC(=O)Cc1cscn1

>  <HIPPO Compound ID>  (469) 
6276

>  <HIPPO Pose ID>  (469) 
433020

>  <ref_pdb>  (469) 
A4386a

$$$$
C10627-P494
     RDKit          3D

 13 13  0  0  0  0  0  0  0  0999 V2000
    8.3409   15.5049   25.5814 C   0  0  0  0  0  0  0  0  0  0  0  0
    8.5354   14.4896   24.4646 C   0  0  0  0  0  0  0  0  0  0  0  0
    7.2445   13.8749   23.8936 C   0  0  1  0  0  0  0  0  0  0  0  0
    6.1977   13.5877   24.9617 C   0  0  0  0  0  0  0  0  0  0  0  0
    6.7757   14.6081   22.6211 C   0  0  0  0  0  0  0  0  0  0  0  0
    7.3883   14.4139   21.5645 O   0  0  0  0  0  0  0  0  0  0  0  0
    5.6316   15.5954   22.6632 C   0  0  0  0  0  0  0  0  0  0  0  0
    4.0267   14.7790   22.6619 S   0  0  0  0  0  0  0  0  0  0  0  0
    3.7535   14.4844   20.9761 C   0  0  0  0  0  0  0  0  0  0  0  0
    3.0808   15.3172   20.2052 N   0  0  0  0  0  0  0  0  0  0  0  0
    2.9400   14.6266   19.0237 C   0  0  0  0  0  0  0  0  0  0  0  0
    3.5807   13.4186   19.1090 C   0  0  0  0  0  0  0  0  0  0  0  0
    4.1050   13.3131   20.3614 O   0  0  0  0  0  0  0  0  0  0  0  0
  1  2  1  0
  2  3  1  0
  3  4  1  1
  3  5  1  0
  5  6  2  0
  5  7  1  0
  7  8  1  0
  8  9  1  0
  9 10  2  0
 10 11  1  0
 11 12  2  0
 12 13  1  0
 13  9  1  0
M  END
>  <inchikey>  (470) 
DRKPVRIBDAVVDE-UHFFFAOYSA-N

>  <energy_score>  (470) 
-24.749611

>  <subsites>  (470) 
1 - Active Site

>  <alias>  (470) 
C10627-P494

>  <tags>  (470) 
openbind_a71ev2a_c1_scaffolds,BulkDock Fragalysis export,openbind_a71ev2a_c1_knitwork_impure,fragmenstein_placed

>  <distance_score>  (470) 
0.93437

>  <placement_batch>  (470) 
openbind_a71ev2a_c1_knitwork_impure

>  <name>  (470) 
C10627-P494

>  <ref_mols>  (470) 
A3623a,A4874a

>  <smiles>  (470) 
CC[C@@H](C)C(=O)CSc1ncco1

>  <HIPPO Compound ID>  (470) 
20940

>  <HIPPO Pose ID>  (470) 
433057

>  <ref_pdb>  (470) 
A4386a

$$$$
C10655-P494
     RDKit          3D

 12 12  0  0  0  0  0  0  0  0999 V2000
    8.5610   14.2352   24.0795 C   0  0  0  0  0  0  0  0  0  0  0  0
    7.0706   14.5681   24.0110 C   0  0  0  0  0  0  0  0  0  0  0  0
    6.2952   13.5585   24.8623 C   0  0  0  0  0  0  0  0  0  0  0  0
    6.5825   14.5934   22.5494 C   0  0  0  0  0  0  0  0  0  0  0  0
    5.2845   15.3730   22.4151 C   0  0  0  0  0  0  0  0  0  0  0  0
    5.2838   16.6026   22.4853 O   0  0  0  0  0  0  0  0  0  0  0  0
    3.9991   14.6055   22.2732 C   0  0  0  0  0  0  0  0  0  0  0  0
    3.6454   14.4606   20.8502 C   0  0  0  0  0  0  0  0  0  0  0  0
    2.8758   15.2314   20.1073 N   0  0  0  0  0  0  0  0  0  0  0  0
    2.7926   14.5568   18.9136 C   0  0  0  0  0  0  0  0  0  0  0  0
    3.5436   13.4112   18.9716 C   0  0  0  0  0  0  0  0  0  0  0  0
    4.0987   13.3351   20.2140 O   0  0  0  0  0  0  0  0  0  0  0  0
  1  2  1  0
  2  3  1  0
  2  4  1  0
  4  5  1  0
  5  6  2  0
  5  7  1  0
  7  8  1  0
  8  9  2  0
  9 10  1  0
 10 11  2  0
 11 12  1  0
 12  8  1  0
M  END
>  <inchikey>  (471) 
VSZVJPLKYBCKOO-UHFFFAOYSA-N

>  <energy_score>  (471) 
-27.43491

>  <subsites>  (471) 
1 - Active Site

>  <alias>  (471) 
C10655-P494

>  <tags>  (471) 
openbind_a71ev2a_c1_scaffolds,BulkDock Fragalysis export,openbind_a71ev2a_c1_knitwork_impure,fragmenstein_placed

>  <distance_score>  (471) 
0.841786

>  <placement_batch>  (471) 
openbind_a71ev2a_c1_knitwork_impure

>  <name>  (471) 
C10655-P494

>  <ref_mols>  (471) 
A3623a,A4874a

>  <smiles>  (471) 
CC(C)CC(=O)Cc1ncco1

>  <HIPPO Compound ID>  (471) 
6066

>  <HIPPO Pose ID>  (471) 
433071

>  <ref_pdb>  (471) 
A4386a

$$$$
C6791-P159
     RDKit          3D

 12 13  0  0  0  0  0  0  0  0999 V2000
    9.2331   10.1786   23.8187 C   0  0  0  0  0  0  0  0  0  0  0  0
    9.3622   11.4310   23.2505 C   0  0  0  0  0  0  0  0  0  0  0  0
    8.6287   12.4644   23.7872 C   0  0  0  0  0  0  0  0  0  0  0  0
    8.6613   13.7623   23.3143 N   0  0  0  0  0  0  0  0  0  0  0  0
    9.2097   14.7019   24.2906 C   0  0  0  0  0  0  0  0  0  0  0  0
   10.7345   14.7663   24.1898 C   0  0  0  0  0  0  0  0  0  0  0  0
   11.3235   15.3513   22.5669 S   0  0  0  0  0  0  0  0  0  0  0  0
   10.3384   14.2732   21.4966 C   0  0  0  0  0  0  0  0  0  0  0  0
    8.8715   14.1768   21.9153 C   0  0  0  0  0  0  0  0  0  0  0  0
    7.8408   12.2350   24.8543 N   0  0  0  0  0  0  0  0  0  0  0  0
    7.7653   10.9815   25.3237 C   0  0  0  0  0  0  0  0  0  0  0  0
    8.4317    9.9229   24.8603 N   0  0  0  0  0  0  0  0  0  0  0  0
  1  2  2  0
  2  3  1  0
  3  4  1  0
  4  5  1  0
  5  6  1  0
  6  7  1  0
  7  8  1  0
  8  9  1  0
  3 10  2  0
 10 11  1  0
 11 12  2  0
 12  1  1  0
  9  4  1  0
M  END
>  <inchikey>  (472) 
BUCJQHMDCWUKLE-UHFFFAOYSA-N

>  <energy_score>  (472) 
-15.755838

>  <subsites>  (472) 
1 - Active Site

>  <alias>  (472) 
C6791-P159

>  <tags>  (472) 
openbind_a71ev2a_c1_scaffolds,BulkDock Fragalysis export,openbind_a71ev2a_c1_knitwork_impure,fragmenstein_placed

>  <distance_score>  (472) 
0.832806

>  <placement_batch>  (472) 
openbind_a71ev2a_c1_knitwork_impure

>  <name>  (472) 
C6791-P159

>  <ref_mols>  (472) 
A3223a,A1068a

>  <smiles>  (472) 
c1cc(N2CCSCC2)ncn1

>  <HIPPO Compound ID>  (472) 
10320

>  <HIPPO Pose ID>  (472) 
433185

>  <ref_pdb>  (472) 
A4386a

$$$$
C18187-P391
     RDKit          3D

 12 12  0  0  0  0  0  0  0  0999 V2000
    8.5811    9.9202   24.6895 C   0  0  0  0  0  0  0  0  0  0  0  0
    7.8591   11.2151   24.9287 C   0  0  0  0  0  0  0  0  0  0  0  0
    6.5943   11.1674   25.7463 C   0  0  0  0  0  0  0  0  0  0  0  0
    8.3588   12.3375   24.3761 C   0  0  0  0  0  0  0  0  0  0  0  0
    7.7575   13.6946   24.5541 C   0  0  0  0  0  0  0  0  0  0  0  0
    7.1065   13.9635   25.5652 O   0  0  0  0  0  0  0  0  0  0  0  0
    7.8978   14.6970   23.4377 C   0  0  0  0  0  0  0  0  0  0  0  0
    9.2611   14.8642   22.9839 N   0  0  0  0  0  0  0  0  0  0  0  0
   10.3235   15.3472   23.6950 C   0  0  0  0  0  0  0  0  0  0  0  0
   11.4005   15.2998   22.8402 C   0  0  0  0  0  0  0  0  0  0  0  0
   10.8801   14.7970   21.6338 C   0  0  0  0  0  0  0  0  0  0  0  0
    9.5752   14.5221   21.7249 N   0  0  0  0  0  0  0  0  0  0  0  0
  1  2  1  0
  2  3  1  0
  2  4  2  3
  4  5  1  0
  5  6  2  0
  5  7  1  0
  7  8  1  0
  8  9  1  0
  9 10  2  0
 10 11  1  0
 11 12  2  0
 12  8  1  0
M  END
>  <inchikey>  (473) 
DCTJOWXNIBHWEL-UHFFFAOYSA-N

>  <energy_score>  (473) 
-20.858949

>  <subsites>  (473) 
1 - Active Site

>  <alias>  (473) 
C18187-P391

>  <tags>  (473) 
openbind_a71ev2a_c1_scaffolds,BulkDock Fragalysis export,openbind_a71ev2a_c1_knitwork_impure,fragmenstein_placed

>  <distance_score>  (473) 
0.882664

>  <placement_batch>  (473) 
openbind_a71ev2a_c1_knitwork_impure

>  <name>  (473) 
C18187-P391

>  <ref_mols>  (473) 
A0556a,A4526a

>  <smiles>  (473) 
CC(C)=CC(=O)Cn1cccn1

>  <HIPPO Compound ID>  (473) 
21077

>  <HIPPO Pose ID>  (473) 
433693

>  <ref_pdb>  (473) 
A4386a

$$$$
C18209-P391
     RDKit          3D

 11 11  0  0  0  0  0  0  0  0999 V2000
   11.0112   15.4283   20.7309 C   0  0  0  0  0  0  0  0  0  0  0  0
    9.2614   15.3617   21.1694 S   0  0  0  0  0  0  0  0  0  0  0  0
    9.4116   14.9779   22.9268 C   0  0  0  0  0  0  0  0  0  0  0  0
    8.0953   14.3880   23.4117 C   0  0  0  0  0  0  0  0  0  0  0  0
    8.2633   13.9641   24.7681 O   0  0  0  0  0  0  0  0  0  0  0  0
    7.3539   12.9239   25.1139 C   0  0  0  0  0  0  0  0  0  0  0  0
    7.9318   11.5790   24.8536 C   0  0  0  0  0  0  0  0  0  0  0  0
    7.4666   10.3544   25.3673 C   0  0  0  0  0  0  0  0  0  0  0  0
    8.1877    9.3127   24.9524 N   0  0  0  0  0  0  0  0  0  0  0  0
    9.1046    9.8572   24.1364 N   0  0  0  0  0  0  0  0  0  0  0  0
    9.0122   11.2159   24.0723 C   0  0  0  0  0  0  0  0  0  0  0  0
  1  2  1  0
  2  3  1  0
  3  4  1  0
  4  5  1  0
  5  6  1  0
  6  7  1  0
  7  8  1  0
  8  9  2  0
  9 10  1  0
 10 11  1  0
 11  7  2  0
M  END
>  <inchikey>  (474) 
ZQFYEICALXCDIF-UHFFFAOYSA-N

>  <energy_score>  (474) 
-19.971247

>  <subsites>  (474) 
1 - Active Site

>  <alias>  (474) 
C18209-P391

>  <tags>  (474) 
openbind_a71ev2a_c1_scaffolds,BulkDock Fragalysis export,openbind_a71ev2a_c1_knitwork_impure,fragmenstein_placed

>  <distance_score>  (474) 
0.969905

>  <placement_batch>  (474) 
openbind_a71ev2a_c1_knitwork_impure

>  <name>  (474) 
C18209-P391

>  <ref_mols>  (474) 
A0556a,A4526a

>  <smiles>  (474) 
CSCCOCc1cn[nH]c1

>  <HIPPO Compound ID>  (474) 
13624

>  <HIPPO Pose ID>  (474) 
433698

>  <ref_pdb>  (474) 
A4386a

$$$$
C1304-P207
     RDKit          3D

 12 12  0  0  0  0  0  0  0  0999 V2000
    5.5778   14.6184   25.0835 O   0  0  0  0  0  0  0  0  0  0  0  0
    6.6530   14.1880   24.9661 C   0  0  0  0  0  0  0  0  0  0  0  0
    7.8879   15.0677   24.8645 C   0  0  0  0  0  0  0  0  0  0  0  0
    8.3711   15.1447   23.4152 C   0  0  0  0  0  0  0  0  0  0  0  0
    9.6318   15.8908   23.3196 N   0  0  0  0  0  0  0  0  0  0  0  0
   10.8150   15.1204   23.7494 C   0  0  0  0  0  0  0  0  0  0  0  0
   11.2618   14.0089   22.7788 C   0  0  0  0  0  0  0  0  0  0  0  0
   11.4619   14.4759   21.4095 N   0  0  0  0  0  0  0  0  0  0  0  0
   10.3038   15.2488   20.9379 C   0  0  0  0  0  0  0  0  0  0  0  0
    9.8781   16.3547   21.9250 C   0  0  0  0  0  0  0  0  0  0  0  0
    7.1436   12.7293   24.9086 N   0  0  0  0  0  0  0  0  0  0  0  0
    6.4332   11.5432   24.8892 O   0  0  0  0  0  0  0  0  0  0  0  0
  1  2  2  0
  2  3  1  0
  3  4  1  0
  4  5  1  0
  5  6  1  0
  6  7  1  0
  7  8  1  0
  8  9  1  0
  9 10  1  0
  2 11  1  0
 11 12  1  0
 10  5  1  0
M  END
>  <inchikey>  (475) 
SJYNETFQBPJTBE-UHFFFAOYSA-N

>  <energy_score>  (475) 
-6.210734

>  <subsites>  (475) 
1 - Active Site

>  <alias>  (475) 
C1304-P207

>  <tags>  (475) 
openbind_a71ev2a_c1_scaffolds,BulkDock Fragalysis export,openbind_a71ev2a_c1_knitwork_impure,fragmenstein_placed

>  <distance_score>  (475) 
0.781017

>  <placement_batch>  (475) 
openbind_a71ev2a_c1_knitwork_impure

>  <name>  (475) 
C1304-P207

>  <ref_mols>  (475) 
A1080a,A3706a

>  <smiles>  (475) 
O=C(CCN1CCNCC1)NO

>  <HIPPO Compound ID>  (475) 
1338

>  <HIPPO Pose ID>  (475) 
434180

>  <ref_pdb>  (475) 
A4386a

$$$$
C3858-P32
     RDKit          3D

 17 19  0  0  0  0  0  0  0  0999 V2000
   18.7262   -4.4179   25.7619 C   0  0  0  0  0  0  0  0  0  0  0  0
   18.2181   -5.3191   24.8550 C   0  0  0  0  0  0  0  0  0  0  0  0
   18.2746   -4.6859   23.6457 N   0  0  0  0  0  0  0  0  0  0  0  0
   17.8653   -5.2041   22.4574 N   0  0  0  0  0  0  0  0  0  0  0  0
   18.0598   -4.3892   21.4681 C   0  0  0  0  0  0  0  0  0  0  0  0
   17.6836   -4.8057   20.2419 O   0  0  0  0  0  0  0  0  0  0  0  0
   17.2223   -3.9389   19.1769 C   0  0  0  0  0  0  0  0  0  0  0  0
   15.8881   -4.4821   18.6627 C   0  0  0  0  0  0  0  0  0  0  0  0
   15.9774   -5.9069   18.1048 C   0  0  0  0  0  0  0  0  0  0  0  0
   14.5979   -6.4010   17.6618 C   0  0  0  0  0  0  0  0  0  0  0  0
   13.9673   -5.4849   16.7140 N   0  0  0  0  0  0  0  0  0  0  0  0
   13.8758   -4.1204   17.2320 C   0  0  0  0  0  0  0  0  0  0  0  0
   15.2365   -3.5660   17.6441 C   0  0  0  0  0  0  0  0  0  0  0  0
   18.6915   -3.0579   21.5345 C   0  0  0  0  0  0  0  0  0  0  0  0
   19.0440   -2.6160   22.7480 C   0  0  0  0  0  0  0  0  0  0  0  0
   18.8326   -3.4398   23.8714 C   0  0  0  0  0  0  0  0  0  0  0  0
   19.1032   -3.2499   25.1437 N   0  0  0  0  0  0  0  0  0  0  0  0
  1  2  2  0
  2  3  1  0
  3  4  1  0
  4  5  2  0
  5  6  1  0
  6  7  1  0
  7  8  1  0
  8  9  1  0
  9 10  1  0
 10 11  1  0
 11 12  1  0
 12 13  1  0
  5 14  1  0
 14 15  2  0
 15 16  1  0
 16 17  2  0
 17  1  1  0
 16  3  1  0
 13  8  1  0
M  END
>  <inchikey>  (476) 
RNMVOHQXDNXOGF-UHFFFAOYSA-N

>  <energy_score>  (476) 
-44.907064

>  <subsites>  (476) 
2 - A3977/A/202/1

>  <alias>  (476) 
C3858-P32

>  <tags>  (476) 
openbind_a71ev2a_c1_scaffolds,BulkDock Fragalysis export,openbind_a71ev2a_c1_knitwork_impure,fragmenstein_placed

>  <distance_score>  (476) 
0.851524

>  <placement_batch>  (476) 
openbind_a71ev2a_c1_knitwork_impure

>  <name>  (476) 
C3858-P32

>  <ref_mols>  (476) 
A0269a,A0202a

>  <smiles>  (476) 
c1cn2nc(OCC3CCNCC3)ccc2n1

>  <HIPPO Compound ID>  (476) 
8604

>  <HIPPO Pose ID>  (476) 
434510

>  <ref_pdb>  (476) 
A4386a

$$$$
C23130-P37
     RDKit          3D

 22 22  0  0  0  0  0  0  0  0999 V2000
   12.7947   14.9158   22.4143 C   0  0  0  0  0  0  0  0  0  0  0  0
   11.9000   13.6934   22.3634 C   0  0  0  0  0  0  0  0  0  0  0  0
   11.0320   13.5861   23.6079 C   0  0  0  0  0  0  0  0  0  0  0  0
   11.0409   14.3743   24.4723 O   0  0  0  0  0  0  0  0  0  0  0  0
   10.1328   12.3297   23.3958 N   0  0  0  0  0  0  0  0  0  0  0  0
    9.0422   11.8631   24.1291 C   0  0  0  0  0  0  0  0  0  0  0  0
    8.8391   10.4931   24.1909 C   0  0  0  0  0  0  0  0  0  0  0  0
    7.8333    9.9745   25.0133 C   0  0  0  0  0  0  0  0  0  0  0  0
    6.9936   10.7981   25.7570 C   0  0  0  0  0  0  0  0  0  0  0  0
    6.0341   10.2551   26.6149 N   0  0  0  0  0  0  0  0  0  0  0  0
    5.0142   10.9580   27.5732 C   0  0  0  0  0  0  0  0  0  0  0  0
    4.7769   12.0935   27.7257 O   0  0  0  0  0  0  0  0  0  0  0  0
    4.3802    9.8635   28.4388 C   0  0  0  0  0  0  0  0  0  0  0  0
    3.5432   10.3268   29.6635 C   0  0  1  0  0  0  0  0  0  0  0  0
    4.0482   11.5925   30.3626 C   0  0  0  0  0  0  0  0  0  0  0  0
    2.0504   10.4430   29.3917 C   0  0  0  0  0  0  0  0  0  0  0  0
    1.3811   10.7079   30.5388 F   0  0  0  0  0  0  0  0  0  0  0  0
    1.5615    9.2759   28.9126 F   0  0  0  0  0  0  0  0  0  0  0  0
    1.7410   11.4018   28.5000 F   0  0  0  0  0  0  0  0  0  0  0  0
    7.1413   12.1677   25.6249 C   0  0  0  0  0  0  0  0  0  0  0  0
    8.1456   12.7085   24.7993 C   0  0  0  0  0  0  0  0  0  0  0  0
    8.1489   14.1929   24.6311 C   0  0  0  0  0  0  0  0  0  0  0  0
  1  2  1  0
  2  3  1  0
  3  4  2  0
  3  5  1  0
  5  6  1  0
  6  7  2  0
  7  8  1  0
  8  9  2  0
  9 10  1  0
 10 11  1  0
 11 12  2  0
 11 13  1  0
 13 14  1  0
 14 15  1  6
 14 16  1  0
 16 17  1  0
 16 18  1  0
 16 19  1  0
  9 20  1  0
 20 21  2  0
 21 22  1  0
 21  6  1  0
M  END
>  <inchikey>  (477) 
UGZOXRFYKLKGPI-UHFFFAOYSA-N

>  <energy_score>  (477) 
-25.480199

>  <subsites>  (477) 
1 - Active Site

>  <alias>  (477) 
C23130-P37

>  <tags>  (477) 
openbind_a71ev2a_c1_scaffolds,BulkDock Fragalysis export,openbind_a71ev2a_c1_knitwork_impure,fragmenstein_placed

>  <distance_score>  (477) 
0.997458

>  <placement_batch>  (477) 
openbind_a71ev2a_c1_knitwork_impure

>  <name>  (477) 
C23130-P37

>  <ref_mols>  (477) 
A1445a,A0310a

>  <smiles>  (477) 
CCC(=O)Nc1ccc(NC(=O)C[C@@H](C)C(F)(F)F)cc1C

>  <HIPPO Compound ID>  (477) 
23130

>  <HIPPO Pose ID>  (477) 
435267

>  <ref_pdb>  (477) 
A3623a

$$$$
C7644-P270
     RDKit          3D

 13 13  0  0  0  0  0  0  0  0999 V2000
    7.3307   15.7918   26.4690 C   0  0  0  0  0  0  0  0  0  0  0  0
    7.8611   15.5439   25.0662 C   0  0  0  0  0  0  0  0  0  0  0  0
    6.7331   15.2863   24.0729 C   0  0  0  0  0  0  0  0  0  0  0  0
    7.2605   14.3720   22.6261 S   0  0  0  0  0  0  0  0  0  0  0  0
    8.6220   14.7204   22.3037 O   0  0  0  0  0  0  0  0  0  0  0  0
    6.2146   14.4208   21.6319 O   0  0  0  0  0  0  0  0  0  0  0  0
    7.1934   12.7902   23.1752 N   0  0  0  0  0  0  0  0  0  0  0  0
    8.2299   12.2809   24.0658 C   0  0  2  0  0  0  0  0  0  0  0  0
    8.6610   10.9496   23.5457 C   0  0  0  0  0  0  0  0  0  0  0  0
    8.1759    9.7856   23.9998 C   0  0  0  0  0  0  0  0  0  0  0  0
    7.1289    9.6961   25.0602 C   0  0  0  0  0  0  0  0  0  0  0  0
    6.6440   11.0183   25.6325 C   0  0  0  0  0  0  0  0  0  0  0  0
    7.6677   12.1279   25.4741 C   0  0  0  0  0  0  0  0  0  0  0  0
  1  2  1  0
  2  3  1  0
  3  4  1  0
  4  5  2  0
  4  6  2  0
  4  7  1  0
  8  7  1  6
  8  9  1  0
  9 10  2  0
 10 11  1  0
 11 12  1  0
 12 13  1  0
 13  8  1  0
M  END
>  <inchikey>  (478) 
FQPSGVBYUDGJAR-UHFFFAOYSA-N

>  <energy_score>  (478) 
-25.0399

>  <subsites>  (478) 
1 - Active Site

>  <alias>  (478) 
C7644-P270

>  <tags>  (478) 
openbind_a71ev2a_c1_scaffolds,BulkDock Fragalysis export,openbind_a71ev2a_c1_knitwork_impure,fragmenstein_placed

>  <distance_score>  (478) 
0.989367

>  <placement_batch>  (478) 
openbind_a71ev2a_c1_knitwork_impure

>  <name>  (478) 
C7644-P270

>  <ref_mols>  (478) 
A0719a,A4020a

>  <smiles>  (478) 
CCCS(=O)(=O)N[C@@H]1C=CCCC1

>  <HIPPO Compound ID>  (478) 
7644

>  <HIPPO Pose ID>  (478) 
435887

>  <ref_pdb>  (478) 
A3623a

$$$$
C7649-P270
     RDKit          3D

 14 15  0  0  0  0  0  0  0  0999 V2000
    5.8319   16.1263   21.8990 N   0  0  0  0  0  0  0  0  0  0  0  0
    6.8444   14.9936   22.6079 S   0  0  0  0  0  0  0  0  0  0  0  0
    8.1747   15.5295   22.4594 O   0  0  0  0  0  0  0  0  0  0  0  0
    6.4501   13.7362   22.0103 O   0  0  0  0  0  0  0  0  0  0  0  0
    6.3125   15.1161   24.3150 C   0  0  0  0  0  0  0  0  0  0  0  0
    7.1603   14.3236   25.3048 C   0  0  0  0  0  0  0  0  0  0  0  0
    6.9337   12.8088   25.1837 C   0  0  0  0  0  0  0  0  0  0  0  0
    8.1468   12.0387   24.9557 N   0  0  0  0  0  0  0  0  0  0  0  0
    8.8571   12.5129   23.7657 C   0  0  0  0  0  0  0  0  0  0  0  0
    9.7985   11.3925   23.4826 C   0  0  0  0  0  0  0  0  0  0  0  0
    9.0008   10.1781   23.8172 C   0  0  0  0  0  0  0  0  0  0  0  0
    9.6302    8.8102   23.9833 C   0  0  0  0  0  0  0  0  0  0  0  0
    8.8899    9.1024   22.7561 C   0  0  0  0  0  0  0  0  0  0  0  0
    7.8449   10.6066   24.6866 C   0  0  0  0  0  0  0  0  0  0  0  0
  1  2  1  0
  2  3  2  0
  2  4  2  0
  2  5  1  0
  5  6  1  0
  6  7  1  0
  7  8  1  0
  8  9  1  0
  9 10  1  0
 10 11  1  0
 11 12  1  0
 12 13  1  0
 11 14  1  0
 14  8  1  0
 13 11  1  0
M  END
>  <inchikey>  (479) 
VYSLTJZGYMQXGZ-UHFFFAOYSA-N

>  <energy_score>  (479) 
-36.150809

>  <subsites>  (479) 
1 - Active Site

>  <alias>  (479) 
C7649-P270

>  <tags>  (479) 
openbind_a71ev2a_c1_scaffolds,BulkDock Fragalysis export,openbind_a71ev2a_c1_knitwork_impure,fragmenstein_placed

>  <distance_score>  (479) 
0.974322

>  <placement_batch>  (479) 
openbind_a71ev2a_c1_knitwork_impure

>  <name>  (479) 
C7649-P270

>  <ref_mols>  (479) 
A0719a,A4020a

>  <smiles>  (479) 
NS(=O)(=O)CCCN1CCC2(CC2)C1

>  <HIPPO Compound ID>  (479) 
7170

>  <HIPPO Pose ID>  (479) 
435890

>  <ref_pdb>  (479) 
A3623a

$$$$
C23707-P106
     RDKit          3D

 13 13  0  0  0  0  0  0  0  0999 V2000
   13.4171   12.5662   26.1881 C   0  0  0  0  0  0  0  0  0  0  0  0
   13.4401   11.6553   24.9779 C   0  0  0  0  0  0  0  0  0  0  0  0
   14.7864   10.9209   25.0715 C   0  0  0  0  0  0  0  0  0  0  0  0
   12.2137   10.6984   24.8058 C   0  0  0  0  0  0  0  0  0  0  0  0
   10.8133   11.3327   24.7449 C   0  0  2  0  0  0  0  0  0  0  0  0
    9.8162   10.2463   24.3231 C   0  0  0  0  0  0  0  0  0  0  0  0
    8.4046   10.6613   24.6944 C   0  0  0  0  0  0  0  0  0  0  0  0
    8.1837   12.1700   24.6920 C   0  0  0  0  0  0  0  0  0  0  0  0
    9.1171   12.8949   23.7579 C   0  0  0  0  0  0  0  0  0  0  0  0
    8.6427   13.7609   22.8520 C   0  0  0  0  0  0  0  0  0  0  0  0
    9.4838   14.4527   22.0609 F   0  0  0  0  0  0  0  0  0  0  0  0
    7.3115   13.9004   22.6854 F   0  0  0  0  0  0  0  0  0  0  0  0
   10.6008   12.5758   23.8660 C   0  0  0  0  0  0  0  0  0  0  0  0
  1  2  1  0
  2  3  1  0
  2  4  1  0
  5  4  1  6
  5  6  1  0
  6  7  1  0
  7  8  1  0
  8  9  1  0
  9 10  2  3
 10 11  1  0
 10 12  1  0
  9 13  1  0
 13  5  1  0
M  END
>  <inchikey>  (480) 
XNDMHKZPZBSGFI-UHFFFAOYSA-N

>  <energy_score>  (480) 
-1.544319

>  <subsites>  (480) 
1 - Active Site

>  <alias>  (480) 
C23707-P106

>  <tags>  (480) 
openbind_a71ev2a_c1_scaffolds,BulkDock Fragalysis export,openbind_a71ev2a_c1_knitwork_impure,fragmenstein_placed

>  <distance_score>  (480) 
0.980717

>  <placement_batch>  (480) 
openbind_a71ev2a_c1_knitwork_impure

>  <name>  (480) 
C23707-P106

>  <ref_mols>  (480) 
A4311a,A1140a

>  <smiles>  (480) 
CC(C)C[C@@H]1CCCC(=C(F)F)C1

>  <HIPPO Compound ID>  (480) 
7592

>  <HIPPO Pose ID>  (480) 
435922

>  <ref_pdb>  (480) 
A3623a

$$$$
C9375-P199
     RDKit          3D

 14 14  0  0  0  0  0  0  0  0999 V2000
   11.5630   14.8649   19.7115 C   0  0  0  0  0  0  0  0  0  0  0  0
   11.0892   15.3176   21.0897 C   0  0  2  0  0  0  0  0  0  0  0  0
   11.8471   14.6557   22.1589 C   0  0  0  0  0  0  0  0  0  0  0  0
   12.3218   14.0216   23.0077 N   0  0  0  0  0  0  0  0  0  0  0  0
    9.5837   15.0843   21.2391 C   0  0  0  0  0  0  0  0  0  0  0  0
    9.2729   13.7579   21.8236 N   0  0  0  0  0  0  0  0  0  0  0  0
    8.5748   13.7951   23.3330 S   0  0  0  0  0  0  0  0  0  0  0  0
    9.5490   14.2050   24.3103 O   0  0  0  0  0  0  0  0  0  0  0  0
    7.2953   14.4352   23.1991 O   0  0  0  0  0  0  0  0  0  0  0  0
    8.2912   12.1739   23.5786 N   0  0  0  0  0  0  0  0  0  0  0  0
    9.4513   11.2682   23.5450 C   0  0  0  0  0  0  0  0  0  0  0  0
    8.8884    9.9848   24.1106 C   0  0  0  0  0  0  0  0  0  0  0  0
    7.8601   10.4320   25.1383 C   0  0  0  0  0  0  0  0  0  0  0  0
    7.6009   11.9019   24.8630 C   0  0  0  0  0  0  0  0  0  0  0  0
  2  1  1  6
  2  3  1  0
  3  4  3  0
  2  5  1  0
  5  6  1  0
  6  7  1  0
  7  8  2  0
  7  9  2  0
  7 10  1  0
 10 11  1  0
 11 12  1  0
 12 13  1  0
 13 14  1  0
 14 10  1  0
M  END
>  <inchikey>  (481) 
JIBIHHYZANIHBI-UHFFFAOYSA-N

>  <energy_score>  (481) 
-38.293011

>  <subsites>  (481) 
1 - Active Site

>  <alias>  (481) 
C9375-P199

>  <tags>  (481) 
openbind_a71ev2a_c1_scaffolds,BulkDock Fragalysis export,openbind_a71ev2a_c1_knitwork_impure,fragmenstein_placed

>  <distance_score>  (481) 
0.97572

>  <placement_batch>  (481) 
openbind_a71ev2a_c1_knitwork_impure

>  <name>  (481) 
C9375-P199

>  <ref_mols>  (481) 
A0719a,A3621a

>  <smiles>  (481) 
C[C@H](C#N)CNS(=O)(=O)N1CCCC1

>  <HIPPO Compound ID>  (481) 
7642

>  <HIPPO Pose ID>  (481) 
435994

>  <ref_pdb>  (481) 
A3623a

$$$$
C9394-P199
     RDKit          3D

 13 13  0  0  0  0  0  0  0  0999 V2000
    5.5364   11.9225   26.6756 C   0  0  0  0  0  0  0  0  0  0  0  0
    6.1233   10.7207   26.6327 C   0  0  0  0  0  0  0  0  0  0  0  0
    7.0488   10.2104   25.5721 C   0  0  0  0  0  0  0  0  0  0  0  0
    7.4318   11.1915   24.6126 O   0  0  0  0  0  0  0  0  0  0  0  0
    8.4213   12.0770   25.1218 C   0  0  0  0  0  0  0  0  0  0  0  0
    9.4363   12.5346   24.0831 C   0  0  1  0  0  0  0  0  0  0  0  0
    9.9490   11.4116   23.3666 O   0  0  0  0  0  0  0  0  0  0  0  0
    8.8715   13.5985   23.1372 C   0  0  0  0  0  0  0  0  0  0  0  0
    9.8320   13.9160   22.0813 N   0  0  0  0  0  0  0  0  0  0  0  0
   11.1365   14.4001   22.5315 C   0  0  0  0  0  0  0  0  0  0  0  0
   11.6906   15.1845   21.3533 C   0  0  0  0  0  0  0  0  0  0  0  0
   10.5570   15.2455   20.3415 C   0  0  0  0  0  0  0  0  0  0  0  0
    9.3246   14.9263   21.1563 C   0  0  0  0  0  0  0  0  0  0  0  0
  1  2  2  0
  2  3  1  0
  3  4  1  0
  4  5  1  0
  5  6  1  0
  6  7  1  6
  6  8  1  0
  8  9  1  0
  9 10  1  0
 10 11  1  0
 11 12  1  0
 12 13  1  0
 13  9  1  0
M  END
>  <inchikey>  (482) 
QLEQENYLQKJYBV-UHFFFAOYSA-N

>  <energy_score>  (482) 
-33.993345

>  <subsites>  (482) 
1 - Active Site

>  <alias>  (482) 
C9394-P199

>  <tags>  (482) 
openbind_a71ev2a_c1_scaffolds,BulkDock Fragalysis export,openbind_a71ev2a_c1_knitwork_impure,fragmenstein_placed

>  <distance_score>  (482) 
0.898218

>  <placement_batch>  (482) 
openbind_a71ev2a_c1_knitwork_impure

>  <name>  (482) 
C9394-P199

>  <ref_mols>  (482) 
A0719a,A3621a

>  <smiles>  (482) 
C=CCOC[C@@H](O)CN1CCCC1

>  <HIPPO Compound ID>  (482) 
4693

>  <HIPPO Pose ID>  (482) 
436001

>  <ref_pdb>  (482) 
A3623a

$$$$
C7664-P214
     RDKit          3D

 11 11  0  0  0  0  0  0  0  0999 V2000
    7.4876   15.3478   26.7664 C   0  0  0  0  0  0  0  0  0  0  0  0
    8.0631   15.1470   25.3764 C   0  0  0  0  0  0  0  0  0  0  0  0
    6.9640   15.0544   24.3244 C   0  0  0  0  0  0  0  0  0  0  0  0
    7.4328   14.0114   22.9488 S   0  0  0  0  0  0  0  0  0  0  0  0
    8.7267   14.4630   22.4813 O   0  0  0  0  0  0  0  0  0  0  0  0
    6.3394   13.8864   22.0117 O   0  0  0  0  0  0  0  0  0  0  0  0
    7.6742   12.4427   23.5504 N   0  0  0  0  0  0  0  0  0  0  0  0
    7.3077   12.1517   24.8859 N   0  0  0  0  0  0  0  0  0  0  0  0
    5.8552   12.1676   25.1819 C   0  0  0  0  0  0  0  0  0  0  0  0
    5.9380   10.7359   25.7086 C   0  0  0  0  0  0  0  0  0  0  0  0
    7.2823   10.6631   24.9959 C   0  0  0  0  0  0  0  0  0  0  0  0
  1  2  1  0
  2  3  1  0
  3  4  1  0
  4  5  2  0
  4  6  2  0
  4  7  1  0
  7  8  1  0
  8  9  1  0
  9 10  1  0
 10 11  1  0
 11  8  1  0
M  END
>  <inchikey>  (483) 
LUOQOSYKLXGGAL-UHFFFAOYSA-N

>  <energy_score>  (483) 
-24.496543

>  <subsites>  (483) 
1 - Active Site

>  <alias>  (483) 
C7664-P214

>  <tags>  (483) 
openbind_a71ev2a_c1_scaffolds,BulkDock Fragalysis export,openbind_a71ev2a_c1_knitwork_impure,fragmenstein_placed

>  <distance_score>  (483) 
0.983398

>  <placement_batch>  (483) 
openbind_a71ev2a_c1_knitwork_impure

>  <name>  (483) 
C7664-P214

>  <ref_mols>  (483) 
A0719a,A3550a

>  <smiles>  (483) 
CCCS(=O)(=O)NN1CCC1

>  <HIPPO Compound ID>  (483) 
7229

>  <HIPPO Pose ID>  (483) 
437043

>  <ref_pdb>  (483) 
A3623a

$$$$
C1791-P457
     RDKit          3D

 15 17  0  0  0  0  0  0  0  0999 V2000
    7.4576   10.3048   25.4813 C   0  0  0  0  0  0  0  0  0  0  0  0
    8.1760    9.5957   24.3087 C   0  0  0  0  0  0  0  0  0  0  0  0
    9.3308   10.4110   23.7041 C   0  0  0  0  0  0  0  0  0  0  0  0
    8.9169   11.8181   23.6727 C   0  0  0  0  0  0  0  0  0  0  0  0
    9.6175   12.7602   23.0121 O   0  0  0  0  0  0  0  0  0  0  0  0
    8.8836   13.8999   23.2133 C   0  0  0  0  0  0  0  0  0  0  0  0
    9.4590   15.1824   22.7259 C   0  0  0  0  0  0  0  0  0  0  0  0
   10.9458   15.2942   23.0733 C   0  0  0  0  0  0  0  0  0  0  0  0
   11.8449   14.5957   22.0629 C   0  0  0  0  0  0  0  0  0  0  0  0
   11.5580   15.0093   20.6989 N   0  0  0  0  0  0  0  0  0  0  0  0
   10.1661   14.7619   20.3327 C   0  0  0  0  0  0  0  0  0  0  0  0
    9.1895   15.4706   21.2548 C   0  0  0  0  0  0  0  0  0  0  0  0
    7.8008   13.7293   23.9514 N   0  0  0  0  0  0  0  0  0  0  0  0
    7.8375   12.4092   24.2676 C   0  0  0  0  0  0  0  0  0  0  0  0
    6.8811   11.6866   25.1196 C   0  0  0  0  0  0  0  0  0  0  0  0
  1  2  1  0
  2  3  1  0
  3  4  1  0
  4  5  1  0
  5  6  1  0
  6  7  1  0
  7  8  1  0
  8  9  1  0
  9 10  1  0
 10 11  1  0
 11 12  1  0
  6 13  2  0
 13 14  1  0
 14 15  1  0
 15  1  1  0
 14  4  2  0
 12  7  1  0
M  END
>  <inchikey>  (484) 
VIZQUAMFAFOSLS-UHFFFAOYSA-N

>  <energy_score>  (484) 
-46.205028

>  <subsites>  (484) 
1 - Active Site

>  <alias>  (484) 
C1791-P457

>  <tags>  (484) 
openbind_a71ev2a_c1_scaffolds,BulkDock Fragalysis export,openbind_a71ev2a_c1_knitwork_impure,fragmenstein_placed

>  <distance_score>  (484) 
0.983455

>  <placement_batch>  (484) 
openbind_a71ev2a_c1_knitwork_impure

>  <name>  (484) 
C1791-P457

>  <ref_mols>  (484) 
A3623a,A4751a

>  <smiles>  (484) 
C1CCc2oc(C3CCNCC3)nc2C1

>  <HIPPO Compound ID>  (484) 
8846

>  <HIPPO Pose ID>  (484) 
437398

>  <ref_pdb>  (484) 
A3623a

$$$$
C1625-P182
     RDKit          3D

 14 14  0  0  0  0  0  0  0  0999 V2000
    9.5903   16.8972   20.1955 C   0  0  0  0  0  0  0  0  0  0  0  0
    9.8650   15.4164   20.0535 C   0  0  1  0  0  0  0  0  0  0  0  0
   11.0738   15.0394   18.8128 Cl  0  0  0  0  0  0  0  0  0  0  0  0
   10.1778   14.7500   21.3836 C   0  0  0  0  0  0  0  0  0  0  0  0
   11.6410   14.7640   21.8314 C   0  0  0  0  0  0  0  0  0  0  0  0
   11.8126   14.2672   23.2625 C   0  0  0  0  0  0  0  0  0  0  0  0
   10.8697   13.2459   23.6209 N   0  0  0  0  0  0  0  0  0  0  0  0
    9.6470   13.2971   24.5546 C   0  0  0  0  0  0  0  0  0  0  0  0
    9.2562   14.1541   25.2402 O   0  0  0  0  0  0  0  0  0  0  0  0
    8.9262   12.0296   24.5391 C   0  0  0  0  0  0  0  0  0  0  0  0
    9.0484   10.8181   23.8868 C   0  0  0  0  0  0  0  0  0  0  0  0
    8.1024    9.9320   24.3454 N   0  0  0  0  0  0  0  0  0  0  0  0
    7.4188   10.6345   25.2164 C   0  0  0  0  0  0  0  0  0  0  0  0
    7.8553   11.9019   25.3968 O   0  0  0  0  0  0  0  0  0  0  0  0
  2  1  1  1
  2  3  1  0
  2  4  1  0
  4  5  1  0
  5  6  1  0
  6  7  1  0
  7  8  1  0
  8  9  2  0
  8 10  1  0
 10 11  2  0
 11 12  1  0
 12 13  2  0
 13 14  1  0
 14 10  1  0
M  END
>  <inchikey>  (485) 
KSBHXPKVWQLEFJ-UHFFFAOYSA-N

>  <energy_score>  (485) 
-0.325219

>  <subsites>  (485) 
1 - Active Site

>  <alias>  (485) 
C1625-P182

>  <tags>  (485) 
openbind_a71ev2a_c1_scaffolds,BulkDock Fragalysis export,openbind_a71ev2a_c1_knitwork_impure,fragmenstein_placed

>  <distance_score>  (485) 
0.992921

>  <placement_batch>  (485) 
openbind_a71ev2a_c1_knitwork_impure

>  <name>  (485) 
C1625-P182

>  <ref_mols>  (485) 
A3618a,A3435a

>  <smiles>  (485) 
C[C@@H](Cl)CCCNC(=O)c1cnco1

>  <HIPPO Compound ID>  (485) 
18151

>  <HIPPO Pose ID>  (485) 
437431

>  <ref_pdb>  (485) 
A3623a

$$$$
C25337-P198
     RDKit          3D

 17 18  0  0  0  0  0  0  0  0999 V2000
    9.5090    9.4244   23.2312 C   0  0  0  0  0  0  0  0  0  0  0  0
    8.3226    9.6784   24.1342 C   0  0  0  0  0  0  0  0  0  0  0  0
    7.7131    8.8081   24.6139 O   0  0  0  0  0  0  0  0  0  0  0  0
    8.1418   11.2139   24.2494 N   0  0  0  0  0  0  0  0  0  0  0  0
    7.1723   11.9466   24.8664 C   0  0  0  0  0  0  0  0  0  0  0  0
    6.9807   13.3004   24.8239 C   0  0  0  0  0  0  0  0  0  0  0  0
    5.7741   13.6753   25.4927 C   0  0  0  0  0  0  0  0  0  0  0  0
    5.0990   12.5956   26.0412 C   0  0  0  0  0  0  0  0  0  0  0  0
    3.7834   12.5102   26.7079 C   0  0  0  0  0  0  0  0  0  0  0  0
    3.2110   11.4954   26.7340 O   0  0  0  0  0  0  0  0  0  0  0  0
    3.3819   13.8976   27.2478 N   0  0  0  0  0  0  0  0  0  0  0  0
    2.1499   14.3490   27.8495 C   0  0  1  0  0  0  0  0  0  0  0  0
    0.9572   13.9889   26.9678 C   0  0  0  0  0  0  0  0  0  0  0  0
    2.1009   13.8492   29.2680 C   0  0  0  0  0  0  0  0  0  0  0  0
    1.7290   12.4274   29.6172 C   0  0  0  0  0  0  0  0  0  0  0  0
    0.8156   13.5573   30.0071 C   0  0  0  0  0  0  0  0  0  0  0  0
    5.9985   11.1481   25.7939 S   0  0  0  0  0  0  0  0  0  0  0  0
  1  2  1  0
  2  3  2  0
  2  4  1  0
  4  5  1  0
  5  6  2  0
  6  7  1  0
  7  8  2  0
  8  9  1  0
  9 10  2  0
  9 11  1  0
 11 12  1  0
 12 13  1  6
 12 14  1  0
 14 15  1  0
 15 16  1  0
  8 17  1  0
 17  5  1  0
 16 14  1  0
M  END
>  <inchikey>  (486) 
YFCVSAJHUPTKJW-UHFFFAOYSA-N

>  <energy_score>  (486) 
-17.44705

>  <subsites>  (486) 
1 - Active Site

>  <alias>  (486) 
C25337-P198

>  <tags>  (486) 
openbind_a71ev2a_c1_scaffolds,BulkDock Fragalysis export,openbind_a71ev2a_c1_knitwork_impure,fragmenstein_placed

>  <distance_score>  (486) 
0.940833

>  <placement_batch>  (486) 
openbind_a71ev2a_c1_knitwork_impure

>  <name>  (486) 
C25337-P198

>  <ref_mols>  (486) 
A0310a,A3618a

>  <smiles>  (486) 
CC(=O)Nc1ccc(C(=O)N[C@@H](C)C2CC2)s1

>  <HIPPO Compound ID>  (486) 
12320

>  <HIPPO Pose ID>  (486) 
437722

>  <ref_pdb>  (486) 
A4031a

$$$$
C7479-P185
     RDKit          3D

 23 24  0  0  0  0  0  0  0  0999 V2000
    3.5364   12.0230   18.2275 C   0  0  0  0  0  0  0  0  0  0  0  0
    3.4423   12.3267   19.7211 C   0  0  0  0  0  0  0  0  0  0  0  0
    2.4991   11.3389   20.3997 C   0  0  0  0  0  0  0  0  0  0  0  0
    2.9969   13.7124   19.9467 C   0  0  0  0  0  0  0  0  0  0  0  0
    2.0387   14.1655   19.0838 O   0  0  0  0  0  0  0  0  0  0  0  0
    1.8364   15.4417   19.4589 C   0  0  0  0  0  0  0  0  0  0  0  0
    2.5588   15.8331   20.4859 N   0  0  0  0  0  0  0  0  0  0  0  0
    3.2840   14.7188   20.8498 C   0  0  0  0  0  0  0  0  0  0  0  0
    4.1621   14.7353   22.0654 C   0  0  0  0  0  0  0  0  0  0  0  0
    5.3773   15.4815   21.7858 N   0  0  0  0  0  0  0  0  0  0  0  0
    6.8378   14.7997   22.2100 S   0  0  0  0  0  0  0  0  0  0  0  0
    6.6880   13.4236   21.7516 O   0  0  0  0  0  0  0  0  0  0  0  0
    7.7908   15.5754   21.4452 O   0  0  0  0  0  0  0  0  0  0  0  0
    6.7654   15.0178   23.7277 N   0  0  0  0  0  0  0  0  0  0  0  0
    8.1333   14.8242   24.3997 S   0  0  2  0  0  0  0  0  0  0  0  0
    7.9371   15.3278   26.0963 C   0  0  0  0  0  0  0  0  0  0  0  0
    9.3688   15.4305   23.9553 O   0  0  0  0  0  0  0  0  0  0  0  0
    8.5334   13.0995   24.5726 C   0  0  0  0  0  0  0  0  0  0  0  0
    9.3071   12.6164   23.3564 C   0  0  0  0  0  0  0  0  0  0  0  0
    9.6610   11.1586   23.4119 C   0  0  0  0  0  0  0  0  0  0  0  0
    8.6803   10.2203   24.0668 C   0  0  0  0  0  0  0  0  0  0  0  0
    7.7385   10.8015   25.1107 C   0  0  0  0  0  0  0  0  0  0  0  0
    7.3243   12.2341   24.8676 C   0  0  0  0  0  0  0  0  0  0  0  0
  1  2  1  0
  2  3  1  0
  2  4  1  0
  4  5  1  0
  5  6  1  0
  6  7  2  0
  7  8  1  0
  8  9  1  0
  9 10  1  0
 10 11  1  0
 11 12  2  0
 11 13  2  0
 11 14  1  0
 14 15  2  0
 15 16  1  1
 15 17  2  0
 15 18  1  0
 18 19  1  0
 19 20  1  0
 20 21  1  0
 21 22  1  0
 22 23  1  0
  8  4  2  0
 23 18  1  0
M  END
>  <inchikey>  (487) 
DCIDXVFUCNBFDV-UHFFFAOYSA-N

>  <energy_score>  (487) 
-233.921742

>  <subsites>  (487) 
1 - Active Site

>  <alias>  (487) 
C7479-P185

>  <tags>  (487) 
openbind_a71ev2a_c1_scaffolds,BulkDock Fragalysis export,openbind_a71ev2a_c1_knitwork_impure,fragmenstein_placed

>  <distance_score>  (487) 
0.842982

>  <placement_batch>  (487) 
openbind_a71ev2a_c1_knitwork_impure

>  <name>  (487) 
C7479-P185

>  <ref_mols>  (487) 
A3623a,A3480a

>  <smiles>  (487) 
CC(C)c1ocnc1CNS(=O)(=O)N=[S@](C)(=O)C1CCCCC1

>  <HIPPO Compound ID>  (487) 
9783

>  <HIPPO Pose ID>  (487) 
437768

>  <ref_pdb>  (487) 
A4031a

$$$$
C8140-P441
     RDKit          3D

 16 16  0  0  0  0  0  0  0  0999 V2000
    6.5487   15.4928   24.6861 C   0  0  0  0  0  0  0  0  0  0  0  0
    6.4746   14.0396   25.1401 C   0  0  1  0  0  0  0  0  0  0  0  0
    7.7646   13.3562   24.9022 N   0  0  0  0  0  0  0  0  0  0  0  0
    8.3184   13.0981   23.3535 S   0  0  0  0  0  0  0  0  0  0  0  0
    7.1716   12.9945   22.4843 O   0  0  0  0  0  0  0  0  0  0  0  0
    9.2911   12.0376   23.4567 O   0  0  0  0  0  0  0  0  0  0  0  0
    9.1230   14.5397   23.1018 N   0  0  0  0  0  0  0  0  0  0  0  0
   10.4792   14.6607   23.6678 C   0  0  0  0  0  0  0  0  0  0  0  0
   11.5517   14.2692   22.6725 C   0  0  0  0  0  0  0  0  0  0  0  0
   11.4122   15.0581   21.3806 C   0  0  0  0  0  0  0  0  0  0  0  0
   10.0203   14.8641   20.7993 C   0  0  0  0  0  0  0  0  0  0  0  0
    8.9398   15.2355   21.7974 C   0  0  0  0  0  0  0  0  0  0  0  0
    6.0530   13.8575   26.6424 C   0  0  0  0  0  0  0  0  0  0  0  0
    6.0124   12.3542   26.9997 C   0  0  0  0  0  0  0  0  0  0  0  0
    4.6253   14.4072   26.8634 C   0  0  0  0  0  0  0  0  0  0  0  0
    6.9978   14.5866   27.6161 C   0  0  0  0  0  0  0  0  0  0  0  0
  2  1  1  1
  2  3  1  0
  3  4  1  0
  4  5  2  0
  4  6  2  0
  4  7  1  0
  7  8  1  0
  8  9  1  0
  9 10  1  0
 10 11  1  0
 11 12  1  0
  2 13  1  0
 13 14  1  0
 13 15  1  0
 13 16  1  0
 12  7  1  0
M  END
>  <inchikey>  (488) 
JJTOBGQZAVXZPQ-UHFFFAOYSA-N

>  <energy_score>  (488) 
-69.632009

>  <subsites>  (488) 
1 - Active Site

>  <alias>  (488) 
C8140-P441

>  <tags>  (488) 
openbind_a71ev2a_c1_scaffolds,BulkDock Fragalysis export,openbind_a71ev2a_c1_knitwork_impure,fragmenstein_placed

>  <distance_score>  (488) 
0.799849

>  <placement_batch>  (488) 
openbind_a71ev2a_c1_knitwork_impure

>  <name>  (488) 
C8140-P441

>  <ref_mols>  (488) 
A4708a,A0719a

>  <smiles>  (488) 
C[C@@H](NS(=O)(=O)N1CCCCC1)C(C)(C)C

>  <HIPPO Compound ID>  (488) 
9801

>  <HIPPO Pose ID>  (488) 
438195

>  <ref_pdb>  (488) 
A4031a

$$$$
C8169-P441
     RDKit          3D

 14 14  0  0  0  0  0  0  0  0999 V2000
    6.7925   13.1448   22.4361 O   0  0  0  0  0  0  0  0  0  0  0  0
    7.5983   13.9032   23.3642 S   0  0  0  0  0  0  0  0  0  0  0  0
    7.1734   15.1589   23.9259 O   0  0  0  0  0  0  0  0  0  0  0  0
    7.9272   12.9429   24.7086 N   0  0  0  0  0  0  0  0  0  0  0  0
    6.9615   11.8481   24.8998 C   0  0  0  0  0  0  0  0  0  0  0  0
    6.7827   11.4492   26.3505 C   0  0  0  0  0  0  0  0  0  0  0  0
    5.9169   12.4118   27.1555 C   0  0  0  0  0  0  0  0  0  0  0  0
    6.6907   13.9957   27.3725 Cl  0  0  0  0  0  0  0  0  0  0  0  0
    9.1113   14.0913   22.6675 N   0  0  0  0  0  0  0  0  0  0  0  0
   10.2361   14.4081   23.5634 C   0  0  0  0  0  0  0  0  0  0  0  0
   11.5464   14.3475   22.7930 C   0  0  0  0  0  0  0  0  0  0  0  0
   11.5405   15.3091   21.6149 C   0  0  0  0  0  0  0  0  0  0  0  0
   10.3485   15.0310   20.7139 C   0  0  0  0  0  0  0  0  0  0  0  0
    9.0458   15.0284   21.4960 C   0  0  0  0  0  0  0  0  0  0  0  0
  1  2  2  0
  2  3  2  0
  2  4  1  0
  4  5  1  0
  5  6  1  0
  6  7  1  0
  7  8  1  0
  2  9  1  0
  9 10  1  0
 10 11  1  0
 11 12  1  0
 12 13  1  0
 13 14  1  0
 14  9  1  0
M  END
>  <inchikey>  (489) 
XGCYOVHIYMBSNK-UHFFFAOYSA-N

>  <energy_score>  (489) 
-65.659332

>  <subsites>  (489) 
1 - Active Site

>  <alias>  (489) 
C8169-P441

>  <tags>  (489) 
openbind_a71ev2a_c1_scaffolds,BulkDock Fragalysis export,openbind_a71ev2a_c1_knitwork_impure,fragmenstein_placed

>  <distance_score>  (489) 
0.681981

>  <placement_batch>  (489) 
openbind_a71ev2a_c1_knitwork_impure

>  <name>  (489) 
C8169-P441

>  <ref_mols>  (489) 
A4708a,A0719a

>  <smiles>  (489) 
O=S(=O)(NCCCCl)N1CCCCC1

>  <HIPPO Compound ID>  (489) 
8857

>  <HIPPO Pose ID>  (489) 
438206

>  <ref_pdb>  (489) 
A4031a

$$$$
C4790-P373
     RDKit          3D

 10 11  0  0  0  0  0  0  0  0999 V2000
    8.1452   14.0383   24.8035 C   0  0  0  0  0  0  0  0  0  0  0  0
    7.6164   12.8976   25.2614 C   0  0  0  0  0  0  0  0  0  0  0  0
    7.9691   11.5620   24.9582 C   0  0  0  0  0  0  0  0  0  0  0  0
    7.4243   10.3773   25.4890 C   0  0  0  0  0  0  0  0  0  0  0  0
    7.9971    9.2843   24.9899 N   0  0  0  0  0  0  0  0  0  0  0  0
    8.8914    9.7618   24.1022 N   0  0  0  0  0  0  0  0  0  0  0  0
    8.9244   11.1304   24.0657 C   0  0  0  0  0  0  0  0  0  0  0  0
    6.5147   13.1487   26.2486 C   0  0  0  0  0  0  0  0  0  0  0  0
    6.2303   14.6391   26.0485 C   0  0  0  0  0  0  0  0  0  0  0  0
    7.4828   15.2319   25.4049 C   0  0  0  0  0  0  0  0  0  0  0  0
  1  2  2  0
  2  3  1  0
  3  4  1  0
  4  5  2  0
  5  6  1  0
  6  7  1  0
  2  8  1  0
  8  9  1  0
  9 10  1  0
 10  1  1  0
  7  3  2  0
M  END
>  <inchikey>  (490) 
GUENUKMUPWZNRC-UHFFFAOYSA-N

>  <energy_score>  (490) 
-17.91422

>  <subsites>  (490) 
1 - Active Site

>  <alias>  (490) 
C4790-P373

>  <tags>  (490) 
openbind_a71ev2a_c1_scaffolds,BulkDock Fragalysis export,openbind_a71ev2a_c1_knitwork_impure,fragmenstein_placed

>  <distance_score>  (490) 
0.914657

>  <placement_batch>  (490) 
openbind_a71ev2a_c1_knitwork_impure

>  <name>  (490) 
C4790-P373

>  <ref_mols>  (490) 
A0556a,A4461a

>  <smiles>  (490) 
C1=C(c2cn[nH]c2)CCC1

>  <HIPPO Compound ID>  (490) 
8929

>  <HIPPO Pose ID>  (490) 
438249

>  <ref_pdb>  (490) 
A4031a

$$$$
C9370-P619
     RDKit          3D

 15 15  0  0  0  0  0  0  0  0999 V2000
    5.6607   13.6302   26.0912 C   0  0  0  0  0  0  0  0  0  0  0  0
    6.6133   12.5917   25.5239 C   0  0  0  0  0  0  0  0  0  0  0  0
    6.9995   12.8726   24.1815 O   0  0  0  0  0  0  0  0  0  0  0  0
    7.8513   14.0600   24.1321 N   0  0  0  0  0  0  0  0  0  0  0  0
    7.1082   15.0944   23.4262 C   0  0  0  0  0  0  0  0  0  0  0  0
    6.4669   14.6355   22.1255 C   0  0  0  0  0  0  0  0  0  0  0  0
    9.4973   13.7379   23.9042 S   0  0  1  0  0  0  0  0  0  0  0  0
   10.0532   14.1750   25.2608 N   0  0  0  0  0  0  0  0  0  0  0  0
    9.5757   12.4162   23.3345 O   0  0  0  0  0  0  0  0  0  0  0  0
   10.1898   14.7947   22.7999 N   0  0  0  0  0  0  0  0  0  0  0  0
   11.6446   14.9268   22.7923 C   0  0  0  0  0  0  0  0  0  0  0  0
   11.9067   15.8734   21.6457 C   0  0  0  0  0  0  0  0  0  0  0  0
   10.9708   15.3459   20.5867 C   0  0  0  0  0  0  0  0  0  0  0  0
    9.7870   14.8256   21.3899 C   0  0  0  0  0  0  0  0  0  0  0  0
    9.2756   14.1925   25.9143 H   0  0  0  0  0  0  0  0  0  0  0  0
  1  2  1  0
  2  3  1  0
  3  4  1  0
  4  5  1  0
  5  6  1  0
  7  4  1  1
  7  8  2  0
  7  9  2  0
  7 10  1  0
 10 11  1  0
 11 12  1  0
 12 13  1  0
 13 14  1  0
 14 10  1  0
  8 15  1  0
M  END
>  <inchikey>  (491) 
ADCBIDCUFYHYHT-UHFFFAOYSA-N

>  <energy_score>  (491) 
-69.029981

>  <subsites>  (491) 
1 - Active Site

>  <alias>  (491) 
C9370-P619

>  <tags>  (491) 
openbind_a71ev2a_c1_scaffolds,BulkDock Fragalysis export,openbind_a71ev2a_c1_knitwork_impure,fragmenstein_placed

>  <distance_score>  (491) 
0.98158

>  <placement_batch>  (491) 
openbind_a71ev2a_c1_knitwork_impure

>  <name>  (491) 
C9370-P619

>  <ref_mols>  (491) 
A5427a,A0719a

>  <smiles>  (491) 
[H]N=[S@](=O)(N1CCCC1)N(CC)OCC

>  <HIPPO Compound ID>  (491) 
29686

>  <HIPPO Pose ID>  (491) 
438351

>  <ref_pdb>  (491) 
A4031a

$$$$
C9371-P619
     RDKit          3D

 14 14  0  0  0  0  0  0  0  0999 V2000
   11.0626   15.1707   20.3206 C   0  0  0  0  0  0  0  0  0  0  0  0
   11.6959   15.4162   21.4737 C   0  0  0  0  0  0  0  0  0  0  0  0
   11.1917   15.1362   22.8575 C   0  0  0  0  0  0  0  0  0  0  0  0
    9.7208   14.7256   22.9747 C   0  0  0  0  0  0  0  0  0  0  0  0
    9.3369   14.5449   24.4282 C   0  0  0  0  0  0  0  0  0  0  0  0
   10.1861   14.5206   25.3324 O   0  0  0  0  0  0  0  0  0  0  0  0
    7.8559   14.3199   24.8175 C   0  0  2  0  0  0  0  0  0  0  0  0
    6.9053   15.3024   24.1427 C   0  0  0  0  0  0  0  0  0  0  0  0
    7.7887   14.6167   26.2322 O   0  0  0  0  0  0  0  0  0  0  0  0
    7.3961   12.8678   24.5741 C   0  0  1  0  0  0  0  0  0  0  0  0
    8.4897   11.8167   24.6012 C   0  0  0  0  0  0  0  0  0  0  0  0
    7.7594   10.5188   24.8598 C   0  0  0  0  0  0  0  0  0  0  0  0
    6.4902   10.8641   25.4877 N   0  0  0  0  0  0  0  0  0  0  0  0
    6.4404   12.3220   25.6370 C   0  0  0  0  0  0  0  0  0  0  0  0
  1  2  2  0
  2  3  1  0
  3  4  1  0
  4  5  1  0
  5  6  2  0
  5  7  1  0
  7  8  1  6
  7  9  1  0
  7 10  1  0
 10 11  1  1
 11 12  1  0
 12 13  1  0
 13 14  1  0
 14 10  1  0
M  END
>  <inchikey>  (492) 
HISKBNLAAGHDBQ-UHFFFAOYSA-N

>  <energy_score>  (492) 
-30.746723

>  <subsites>  (492) 
1 - Active Site

>  <alias>  (492) 
C9371-P619

>  <tags>  (492) 
openbind_a71ev2a_c1_scaffolds,BulkDock Fragalysis export,openbind_a71ev2a_c1_knitwork_impure,fragmenstein_placed

>  <distance_score>  (492) 
0.835853

>  <placement_batch>  (492) 
openbind_a71ev2a_c1_knitwork_impure

>  <name>  (492) 
C9371-P619

>  <ref_mols>  (492) 
A5427a,A0719a

>  <smiles>  (492) 
C=CCCC(=O)[C@](C)(O)[C@H]1CCNC1

>  <HIPPO Compound ID>  (492) 
6027

>  <HIPPO Pose ID>  (492) 
438352

>  <ref_pdb>  (492) 
A4031a

$$$$
C9376-P619
     RDKit          3D

 10 10  0  0  0  0  0  0  0  0999 V2000
    9.9603   14.7751   22.4236 C   0  0  0  0  0  0  0  0  0  0  0  0
    9.6550   13.8517   23.5873 C   0  0  1  0  0  0  0  0  0  0  0  0
   10.2980   14.3392   24.7715 O   0  0  0  0  0  0  0  0  0  0  0  0
    8.1556   13.7144   23.8775 C   0  0  0  0  0  0  0  0  0  0  0  0
    7.3087   14.4507   23.3719 O   0  0  0  0  0  0  0  0  0  0  0  0
    7.8187   12.6566   24.9182 C   0  0  1  0  0  0  0  0  0  0  0  0
    6.5590   12.9483   25.7105 C   0  0  0  0  0  0  0  0  0  0  0  0
    6.1417   11.5879   26.2445 C   0  0  0  0  0  0  0  0  0  0  0  0
    6.9586   10.5767   25.4521 C   0  0  0  0  0  0  0  0  0  0  0  0
    7.5562   11.3288   24.3513 N   0  0  0  0  0  0  0  0  0  0  0  0
  2  1  1  6
  2  3  1  0
  2  4  1  0
  4  5  2  0
  6  4  1  6
  6  7  1  0
  7  8  1  0
  8  9  1  0
  9 10  1  0
 10  6  1  0
M  END
>  <inchikey>  (493) 
GKFRYZROBLFNAX-UHFFFAOYSA-N

>  <energy_score>  (493) 
-26.782618

>  <subsites>  (493) 
1 - Active Site

>  <alias>  (493) 
C9376-P619

>  <tags>  (493) 
openbind_a71ev2a_c1_scaffolds,BulkDock Fragalysis export,openbind_a71ev2a_c1_knitwork_impure,fragmenstein_placed

>  <distance_score>  (493) 
0.990348

>  <placement_batch>  (493) 
openbind_a71ev2a_c1_knitwork_impure

>  <name>  (493) 
C9376-P619

>  <ref_mols>  (493) 
A5427a,A0719a

>  <smiles>  (493) 
C[C@@H](O)C(=O)[C@H]1CCCN1

>  <HIPPO Compound ID>  (493) 
6510

>  <HIPPO Pose ID>  (493) 
438354

>  <ref_pdb>  (493) 
A4031a

$$$$
C9379-P619
     RDKit          3D

 14 14  0  0  0  0  0  0  0  0999 V2000
   12.2184   15.2435   22.7138 C   0  0  0  0  0  0  0  0  0  0  0  0
   11.6656   15.5295   21.3379 C   0  0  0  0  0  0  0  0  0  0  0  0
   10.4878   14.6351   20.9978 C   0  0  0  0  0  0  0  0  0  0  0  0
    9.1415   15.1757   21.4449 C   0  0  0  0  0  0  0  0  0  0  0  0
    8.9715   15.3927   22.9455 C   0  0  0  0  0  0  0  0  0  0  0  0
    8.9368   14.1134   23.7815 C   0  0  1  0  0  0  0  0  0  0  0  0
   10.0675   13.9994   24.6418 O   0  0  0  0  0  0  0  0  0  0  0  0
    7.6818   14.1205   24.6551 C   0  0  0  0  0  0  0  0  0  0  0  0
    7.2546   15.1503   25.1802 O   0  0  0  0  0  0  0  0  0  0  0  0
    6.9461   12.8000   24.7769 C   0  0  2  0  0  0  0  0  0  0  0  0
    5.8732   12.8219   25.8626 C   0  0  0  0  0  0  0  0  0  0  0  0
    5.9909   11.4860   26.5721 C   0  0  0  0  0  0  0  0  0  0  0  0
    6.9347   10.6810   25.7093 C   0  0  0  0  0  0  0  0  0  0  0  0
    7.8431   11.6846   25.1557 N   0  0  0  0  0  0  0  0  0  0  0  0
  1  2  1  0
  2  3  1  0
  3  4  1  0
  4  5  1  0
  5  6  1  0
  6  7  1  1
  6  8  1  0
  8  9  2  0
 10  8  1  1
 10 11  1  0
 11 12  1  0
 12 13  1  0
 13 14  1  0
 14 10  1  0
M  END
>  <inchikey>  (494) 
HXJSUAIOIMKJMI-UHFFFAOYSA-N

>  <energy_score>  (494) 
-32.50153

>  <subsites>  (494) 
1 - Active Site

>  <alias>  (494) 
C9379-P619

>  <tags>  (494) 
openbind_a71ev2a_c1_scaffolds,BulkDock Fragalysis export,openbind_a71ev2a_c1_knitwork_impure,fragmenstein_placed

>  <distance_score>  (494) 
0.954263

>  <placement_batch>  (494) 
openbind_a71ev2a_c1_knitwork_impure

>  <name>  (494) 
C9379-P619

>  <ref_mols>  (494) 
A5427a,A0719a

>  <smiles>  (494) 
CCCCC[C@@H](O)C(=O)[C@@H]1CCCN1

>  <HIPPO Compound ID>  (494) 
1399

>  <HIPPO Pose ID>  (494) 
438356

>  <ref_pdb>  (494) 
A4031a

$$$$
C9380-P619
     RDKit          3D

 13 13  0  0  0  0  0  0  0  0999 V2000
    6.7806   10.2135   25.5033 C   0  0  0  0  0  0  0  0  0  0  0  0
    8.0296   10.7769   24.8347 C   0  0  0  0  0  0  0  0  0  0  0  0
    8.7728    9.7438   24.0061 C   0  0  0  0  0  0  0  0  0  0  0  0
    7.7766   11.8977   23.9909 O   0  0  0  0  0  0  0  0  0  0  0  0
    7.2647   13.0193   24.7023 C   0  0  0  0  0  0  0  0  0  0  0  0
    7.6253   14.3819   24.1005 C   0  0  2  0  0  0  0  0  0  0  0  0
    6.9008   14.6105   22.8968 O   0  0  0  0  0  0  0  0  0  0  0  0
    9.1430   14.7028   24.0212 C   0  0  0  0  0  0  0  0  0  0  0  0
    9.9499   14.2719   22.8750 N   0  0  0  0  0  0  0  0  0  0  0  0
   11.3708   14.6361   23.0399 C   0  0  0  0  0  0  0  0  0  0  0  0
   11.7077   15.6136   21.9282 C   0  0  0  0  0  0  0  0  0  0  0  0
   10.7753   15.1876   20.8224 C   0  0  0  0  0  0  0  0  0  0  0  0
    9.5094   14.8593   21.5936 C   0  0  0  0  0  0  0  0  0  0  0  0
  1  2  1  0
  2  3  1  0
  2  4  1  0
  4  5  1  0
  5  6  1  0
  6  7  1  6
  6  8  1  0
  8  9  1  0
  9 10  1  0
 10 11  1  0
 11 12  1  0
 12 13  1  0
 13  9  1  0
M  END
>  <inchikey>  (495) 
YCXUBEVMZITSJB-UHFFFAOYSA-N

>  <energy_score>  (495) 
-12.761462

>  <subsites>  (495) 
1 - Active Site

>  <alias>  (495) 
C9380-P619

>  <tags>  (495) 
openbind_a71ev2a_c1_scaffolds,BulkDock Fragalysis export,openbind_a71ev2a_c1_knitwork_impure,fragmenstein_placed

>  <distance_score>  (495) 
0.933271

>  <placement_batch>  (495) 
openbind_a71ev2a_c1_knitwork_impure

>  <name>  (495) 
C9380-P619

>  <ref_mols>  (495) 
A5427a,A0719a

>  <smiles>  (495) 
CC(C)OC[C@H](O)CN1CCCC1

>  <HIPPO Compound ID>  (495) 
21083

>  <HIPPO Pose ID>  (495) 
438357

>  <ref_pdb>  (495) 
A4031a

$$$$
C9385-P619
     RDKit          3D

 12 12  0  0  0  0  0  0  0  0999 V2000
   11.5012   14.7817   22.5311 C   0  0  0  0  0  0  0  0  0  0  0  0
   10.0107   14.7846   22.6748 C   0  0  0  0  0  0  0  0  0  0  0  0
    9.2380   15.1308   21.7903 O   0  0  0  0  0  0  0  0  0  0  0  0
    9.4642   14.3636   24.0278 C   0  0  0  0  0  0  0  0  0  0  0  0
   10.2584   14.0739   24.9224 O   0  0  0  0  0  0  0  0  0  0  0  0
    7.9406   14.4268   24.2230 C   0  0  1  0  0  0  0  0  0  0  0  0
    7.1097   14.3214   23.0821 O   0  0  0  0  0  0  0  0  0  0  0  0
    7.5579   13.3400   25.2461 C   0  0  1  0  0  0  0  0  0  0  0  0
    6.0913   13.3185   25.6446 C   0  0  0  0  0  0  0  0  0  0  0  0
    5.9721   11.9806   26.3512 C   0  0  0  0  0  0  0  0  0  0  0  0
    6.9343   11.0752   25.6024 C   0  0  0  0  0  0  0  0  0  0  0  0
    7.7908   11.9500   24.8095 N   0  0  0  0  0  0  0  0  0  0  0  0
  1  2  1  0
  2  3  2  0
  2  4  1  0
  4  5  2  0
  4  6  1  0
  6  7  1  6
  6  8  1  0
  8  9  1  6
  9 10  1  0
 10 11  1  0
 11 12  1  0
 12  8  1  0
M  END
>  <inchikey>  (496) 
SRBFBJJNWAODEI-UHFFFAOYSA-N

>  <energy_score>  (496) 
-34.58954

>  <subsites>  (496) 
1 - Active Site

>  <alias>  (496) 
C9385-P619

>  <tags>  (496) 
openbind_a71ev2a_c1_scaffolds,BulkDock Fragalysis export,openbind_a71ev2a_c1_knitwork_impure,fragmenstein_placed

>  <distance_score>  (496) 
0.922455

>  <placement_batch>  (496) 
openbind_a71ev2a_c1_knitwork_impure

>  <name>  (496) 
C9385-P619

>  <ref_mols>  (496) 
A5427a,A0719a

>  <smiles>  (496) 
CC(=O)C(=O)[C@@H](O)[C@H]1CCCN1

>  <HIPPO Compound ID>  (496) 
27042

>  <HIPPO Pose ID>  (496) 
438359

>  <ref_pdb>  (496) 
A4031a

$$$$
C9390-P619
     RDKit          3D

 14 14  0  0  0  0  0  0  0  0999 V2000
   11.0037   15.0729   20.8453 C   0  0  0  0  0  0  0  0  0  0  0  0
   10.9316   14.5899   22.2951 C   0  0  0  0  0  0  0  0  0  0  0  0
   11.9123   15.4133   23.0975 C   0  0  0  0  0  0  0  0  0  0  0  0
    9.4911   14.7235   22.8092 C   0  0  0  0  0  0  0  0  0  0  0  0
    9.2664   14.3618   24.2717 C   0  0  0  0  0  0  0  0  0  0  0  0
   10.1929   14.0621   25.0311 O   0  0  0  0  0  0  0  0  0  0  0  0
    7.7998   14.3609   24.7887 C   0  0  1  0  0  0  0  0  0  0  0  0
    7.8057   15.0167   26.1778 C   0  0  0  0  0  0  0  0  0  0  0  0
    6.9720   15.2376   24.0181 O   0  0  0  0  0  0  0  0  0  0  0  0
    7.1903   12.9363   24.7415 C   0  0  1  0  0  0  0  0  0  0  0  0
    8.1631   11.7653   24.7213 C   0  0  0  0  0  0  0  0  0  0  0  0
    7.3681   10.5820   25.2349 C   0  0  0  0  0  0  0  0  0  0  0  0
    6.1491   11.1150   25.8265 N   0  0  0  0  0  0  0  0  0  0  0  0
    6.2933   12.5647   25.9215 C   0  0  0  0  0  0  0  0  0  0  0  0
  1  2  1  0
  2  3  1  0
  2  4  1  0
  4  5  1  0
  5  6  2  0
  5  7  1  0
  7  8  1  1
  7  9  1  0
  7 10  1  0
 10 11  1  1
 11 12  1  0
 12 13  1  0
 13 14  1  0
 14 10  1  0
M  END
>  <inchikey>  (497) 
FEMUIDDNNZKUSG-UHFFFAOYSA-N

>  <energy_score>  (497) 
-16.727462

>  <subsites>  (497) 
1 - Active Site

>  <alias>  (497) 
C9390-P619

>  <tags>  (497) 
openbind_a71ev2a_c1_scaffolds,BulkDock Fragalysis export,openbind_a71ev2a_c1_knitwork_impure,fragmenstein_placed

>  <distance_score>  (497) 
0.957701

>  <placement_batch>  (497) 
openbind_a71ev2a_c1_knitwork_impure

>  <name>  (497) 
C9390-P619

>  <ref_mols>  (497) 
A5427a,A0719a

>  <smiles>  (497) 
CC(C)CC(=O)[C@@](C)(O)[C@H]1CCNC1

>  <HIPPO Compound ID>  (497) 
28490

>  <HIPPO Pose ID>  (497) 
438362

>  <ref_pdb>  (497) 
A4031a

$$$$
C9394-P619
     RDKit          3D

 13 13  0  0  0  0  0  0  0  0999 V2000
    7.3481    9.8866   24.9837 C   0  0  0  0  0  0  0  0  0  0  0  0
    6.6134   10.4771   25.9353 C   0  0  0  0  0  0  0  0  0  0  0  0
    6.2881   11.9371   26.0945 C   0  0  0  0  0  0  0  0  0  0  0  0
    6.5610   12.7450   24.9595 O   0  0  0  0  0  0  0  0  0  0  0  0
    7.9394   12.9251   24.6472 C   0  0  0  0  0  0  0  0  0  0  0  0
    8.3614   14.3762   24.8510 C   0  0  1  0  0  0  0  0  0  0  0  0
    8.1467   14.7092   26.2362 O   0  0  0  0  0  0  0  0  0  0  0  0
    9.8584   14.5176   24.4859 C   0  0  0  0  0  0  0  0  0  0  0  0
   10.1699   15.1129   23.1884 N   0  0  0  0  0  0  0  0  0  0  0  0
   11.5658   14.9142   22.7954 C   0  0  0  0  0  0  0  0  0  0  0  0
   11.5948   15.5156   21.4049 C   0  0  0  0  0  0  0  0  0  0  0  0
   10.1947   15.2702   20.8586 C   0  0  0  0  0  0  0  0  0  0  0  0
    9.4142   14.6654   22.0221 C   0  0  0  0  0  0  0  0  0  0  0  0
  1  2  2  0
  2  3  1  0
  3  4  1  0
  4  5  1  0
  5  6  1  0
  6  7  1  1
  6  8  1  0
  8  9  1  0
  9 10  1  0
 10 11  1  0
 11 12  1  0
 12 13  1  0
 13  9  1  0
M  END
>  <inchikey>  (498) 
CTZSCWGDEJRQJB-UHFFFAOYSA-N

>  <energy_score>  (498) 
-27.014955

>  <subsites>  (498) 
1 - Active Site

>  <alias>  (498) 
C9394-P619

>  <tags>  (498) 
openbind_a71ev2a_c1_scaffolds,BulkDock Fragalysis export,openbind_a71ev2a_c1_knitwork_impure,fragmenstein_placed

>  <distance_score>  (498) 
0.991585

>  <placement_batch>  (498) 
openbind_a71ev2a_c1_knitwork_impure

>  <name>  (498) 
C9394-P619

>  <ref_mols>  (498) 
A5427a,A0719a

>  <smiles>  (498) 
C=CCOC[C@@H](O)CN1CCCC1

>  <HIPPO Compound ID>  (498) 
8760

>  <HIPPO Pose ID>  (498) 
438363

>  <ref_pdb>  (498) 
A4031a

$$$$
C2423-P283
     RDKit          3D

 14 14  0  0  0  0  0  0  0  0999 V2000
   12.2292   15.1712   22.6718 C   0  0  0  0  0  0  0  0  0  0  0  0
   11.1445   14.5537   23.5468 C   0  0  0  0  0  0  0  0  0  0  0  0
   11.1374   15.2069   24.9255 C   0  0  0  0  0  0  0  0  0  0  0  0
    9.8158   14.6641   22.7962 C   0  0  0  0  0  0  0  0  0  0  0  0
    8.5718   14.1329   23.5227 C   0  0  1  0  0  0  0  0  0  0  0  0
    7.4204   14.1497   22.5150 C   0  0  0  0  0  0  0  0  0  0  0  0
    8.7999   12.7594   24.1816 C   0  0  2  0  0  0  0  0  0  0  0  0
    9.3531   11.9106   23.2679 F   0  0  0  0  0  0  0  0  0  0  0  0
    7.5359   12.1130   24.7754 C   0  0  2  0  0  0  0  0  0  0  0  0
    6.8770   12.9981   25.8409 C   0  0  0  0  0  0  0  0  0  0  0  0
    5.9082   12.2484   26.7540 C   0  0  0  0  0  0  0  0  0  0  0  0
    5.6398   10.8211   26.3091 C   0  0  0  0  0  0  0  0  0  0  0  0
    6.8683   10.0726   26.1125 N   0  0  0  0  0  0  0  0  0  0  0  0
    7.8818   10.7175   25.2887 C   0  0  0  0  0  0  0  0  0  0  0  0
  1  2  1  0
  2  3  1  0
  2  4  1  0
  4  5  1  0
  5  6  1  6
  5  7  1  0
  7  8  1  6
  7  9  1  0
  9 10  1  1
 10 11  1  0
 11 12  1  0
 12 13  1  0
 13 14  1  0
 14  9  1  0
M  END
>  <inchikey>  (499) 
BLPQLXCUNUOCSN-UHFFFAOYSA-N

>  <energy_score>  (499) 
-39.020515

>  <subsites>  (499) 
1 - Active Site

>  <alias>  (499) 
C2423-P283

>  <tags>  (499) 
openbind_a71ev2a_c1_scaffolds,BulkDock Fragalysis export,openbind_a71ev2a_c1_knitwork_impure,fragmenstein_placed

>  <distance_score>  (499) 
0.960267

>  <placement_batch>  (499) 
openbind_a71ev2a_c1_knitwork_impure

>  <name>  (499) 
C2423-P283

>  <ref_mols>  (499) 
A1775a,A4291a

>  <smiles>  (499) 
CC(C)C[C@@H](C)[C@H](F)[C@@H]1CCCNC1

>  <HIPPO Compound ID>  (499) 
2403

>  <HIPPO Pose ID>  (499) 
439681

>  <ref_pdb>  (499) 
A4031a

$$$$
C760-P279
     RDKit          3D

 14 16  0  0  0  0  0  0  0  0999 V2000
    8.8598   11.6488   24.0015 C   0  0  0  0  0  0  0  0  0  0  0  0
    9.7325   12.8817   23.7484 C   0  0  0  0  0  0  0  0  0  0  0  0
    9.0190   14.1362   23.9245 N   0  0  0  0  0  0  0  0  0  0  0  0
    9.5839   15.3677   23.3578 C   0  0  0  0  0  0  0  0  0  0  0  0
   11.0221   15.6247   23.8348 C   0  0  0  0  0  0  0  0  0  0  0  0
   12.0921   15.0844   22.8999 C   0  0  0  0  0  0  0  0  0  0  0  0
   11.8883   15.5903   21.5521 N   0  0  0  0  0  0  0  0  0  0  0  0
   10.6238   15.0976   21.0103 C   0  0  0  0  0  0  0  0  0  0  0  0
    9.4357   15.5762   21.8379 C   0  0  0  0  0  0  0  0  0  0  0  0
    7.5674   14.0386   23.8542 C   0  0  0  0  0  0  0  0  0  0  0  0
    7.1805   13.2034   25.0613 C   0  0  0  0  0  0  0  0  0  0  0  0
    7.8423   11.8412   25.1215 C   0  0  0  0  0  0  0  0  0  0  0  0
    5.7885   13.3624   25.6443 C   0  0  0  0  0  0  0  0  0  0  0  0
    6.9564   13.9355   26.3785 C   0  0  0  0  0  0  0  0  0  0  0  0
  1  2  1  0
  2  3  1  0
  3  4  1  0
  4  5  1  0
  5  6  1  0
  6  7  1  0
  7  8  1  0
  8  9  1  0
  3 10  1  0
 10 11  1  0
 11 12  1  0
 11 13  1  0
 13 14  1  0
 12  1  1  0
  9  4  1  0
 14 11  1  0
M  END
>  <inchikey>  (500) 
ZPPAONKPBQFBHG-UHFFFAOYSA-N

>  <energy_score>  (500) 
-25.402418

>  <subsites>  (500) 
1 - Active Site

>  <alias>  (500) 
C760-P279

>  <tags>  (500) 
openbind_a71ev2a_c1_scaffolds,BulkDock Fragalysis export,openbind_a71ev2a_c1_knitwork_impure,fragmenstein_placed

>  <distance_score>  (500) 
0.996398

>  <placement_batch>  (500) 
openbind_a71ev2a_c1_knitwork_impure

>  <name>  (500) 
C760-P279

>  <ref_mols>  (500) 
A0875a,A4035b

>  <smiles>  (500) 
C1CN(C2CCNCC2)CC2(C1)CC2

>  <HIPPO Compound ID>  (500) 
4570

>  <HIPPO Pose ID>  (500) 
440002

>  <ref_pdb>  (500) 
A4031a

$$$$
C742-P441
     RDKit          3D

 12 14  0  0  0  0  0  0  0  0999 V2000
   10.1110   15.4055   20.9392 C   0  0  0  0  0  0  0  0  0  0  0  0
   11.2520   15.2273   21.7043 C   0  0  0  0  0  0  0  0  0  0  0  0
   11.1322   14.6432   22.9598 C   0  0  0  0  0  0  0  0  0  0  0  0
    9.8757   14.2271   23.4141 C   0  0  0  0  0  0  0  0  0  0  0  0
    9.8212   13.4615   24.6128 N   0  0  0  0  0  0  0  0  0  0  0  0
   10.2803   12.0976   24.2675 C   0  0  0  0  0  0  0  0  0  0  0  0
    9.0470   11.2605   24.1725 C   0  0  1  0  0  0  0  0  0  0  0  0
    8.3167   10.7697   25.3847 C   0  0  0  0  0  0  0  0  0  0  0  0
    7.9132   12.0570   24.7309 C   0  0  1  0  0  0  0  0  0  0  0  0
    8.4568   13.3818   25.1738 C   0  0  0  0  0  0  0  0  0  0  0  0
    8.7568   14.4292   22.6878 N   0  0  0  0  0  0  0  0  0  0  0  0
    8.8998   15.0192   21.4811 C   0  0  0  0  0  0  0  0  0  0  0  0
  1  2  2  0
  2  3  1  0
  3  4  2  0
  4  5  1  0
  5  6  1  0
  7  6  1  1
  7  8  1  0
  9  8  1  1
  9 10  1  0
  4 11  1  0
 11 12  2  0
 12  1  1  0
 10  5  1  0
  9  7  1  0
M  END
>  <inchikey>  (501) 
VAYQUYQSWAUBAD-UHFFFAOYSA-N

>  <energy_score>  (501) 
-55.609465

>  <subsites>  (501) 
1 - Active Site

>  <alias>  (501) 
C742-P441

>  <tags>  (501) 
openbind_a71ev2a_c1_scaffolds,BulkDock Fragalysis export,openbind_a71ev2a_c1_knitwork_impure,fragmenstein_placed

>  <distance_score>  (501) 
0.900212

>  <placement_batch>  (501) 
openbind_a71ev2a_c1_knitwork_impure

>  <name>  (501) 
C742-P441

>  <ref_mols>  (501) 
A4708a,A2629a

>  <smiles>  (501) 
c1ccc(N2C[C@H]3C[C@H]3C2)nc1

>  <HIPPO Compound ID>  (501) 
25347

>  <HIPPO Pose ID>  (501) 
440284

>  <ref_pdb>  (501) 
A4031a

$$$$
C11066-P220
     RDKit          3D

 24 26  0  0  0  0  0  0  0  0999 V2000
   26.9000   11.5777    2.8484 C   0  0  0  0  0  0  0  0  0  0  0  0
   25.8366   11.6008    1.7580 C   0  0  2  0  0  0  0  0  0  0  0  0
   26.4163   12.0904    0.4213 C   0  0  0  0  0  0  0  0  0  0  0  0
   25.3646   12.0028   -0.6864 C   0  0  0  0  0  0  0  0  0  0  0  0
   24.0612   12.5583   -0.2475 C   0  0  0  0  0  0  0  0  0  0  0  0
   23.0395   12.9178   -0.9925 N   0  0  0  0  0  0  0  0  0  0  0  0
   22.0248   13.3071   -0.1538 N   0  0  0  0  0  0  0  0  0  0  0  0
   22.4471   13.1740    1.0915 C   0  0  0  0  0  0  0  0  0  0  0  0
   21.6154   13.4514    2.2454 C   0  0  0  0  0  0  0  0  0  0  0  0
   22.0552   13.4038    3.3204 O   0  0  0  0  0  0  0  0  0  0  0  0
   20.1875   13.7570    1.7661 N   0  0  0  0  0  0  0  0  0  0  0  0
   18.9777   13.9754    2.5134 C   0  0  0  0  0  0  0  0  0  0  0  0
   18.2220   15.2326    2.1047 C   0  0  0  0  0  0  0  0  0  0  0  0
   19.0622   16.5098    2.0653 C   0  0  0  0  0  0  0  0  0  0  0  0
   19.4226   17.0406    3.4051 N   0  0  0  0  0  0  0  0  0  0  0  0
   20.7131   17.7633    3.3624 C   0  0  0  0  0  0  0  0  0  0  0  0
   18.4098   17.8738    3.9638 C   0  0  0  0  0  0  0  0  0  0  0  0
   18.5988   18.4533    5.2242 C   0  0  0  0  0  0  0  0  0  0  0  0
   17.6513   19.3374    5.7405 C   0  0  0  0  0  0  0  0  0  0  0  0
   16.5100   19.6106    5.0058 C   0  0  0  0  0  0  0  0  0  0  0  0
   16.3607   18.9644    3.7948 C   0  0  0  0  0  0  0  0  0  0  0  0
   17.2663   18.1011    3.2801 N   0  0  0  0  0  0  0  0  0  0  0  0
   23.7379   12.7252    1.0714 N   0  0  0  0  0  0  0  0  0  0  0  0
   24.6445   12.4812    2.1751 C   0  0  0  0  0  0  0  0  0  0  0  0
  2  1  1  1
  2  3  1  0
  3  4  1  0
  4  5  1  0
  5  6  2  0
  6  7  1  0
  7  8  2  0
  8  9  1  0
  9 10  2  0
  9 11  1  0
 11 12  1  0
 12 13  1  0
 13 14  1  0
 14 15  1  0
 15 16  1  0
 15 17  1  0
 17 18  2  0
 18 19  1  0
 19 20  2  0
 20 21  1  0
 21 22  2  0
  8 23  1  0
 23 24  1  0
 24  2  1  0
 23  5  1  0
 22 17  1  0
M  END
>  <inchikey>  (502) 
ZHYYBDZASCMDMP-UHFFFAOYSA-N

>  <energy_score>  (502) 
-48.070522

>  <subsites>  (502) 
6 - A0486/A/147/1,1 - Active Site

>  <alias>  (502) 
C11066-P220

>  <tags>  (502) 
openbind_a71ev2a_c1_scaffolds,BulkDock Fragalysis export,openbind_a71ev2a_c1_knitwork_impure,fragmenstein_placed

>  <distance_score>  (502) 
0.93973

>  <placement_batch>  (502) 
openbind_a71ev2a_c1_knitwork_impure

>  <name>  (502) 
C11066-P220

>  <ref_mols>  (502) 
A0239a,A3568a

>  <smiles>  (502) 
C[C@@H]1CCc2nnc(C(=O)NCCCN(C)c3ccccn3)n2C1

>  <HIPPO Compound ID>  (502) 
5169

>  <HIPPO Pose ID>  (502) 
440348

>  <ref_pdb>  (502) 
A4031a

$$$$
C7620-P239
     RDKit          3D

 15 16  0  0  0  0  0  0  0  0999 V2000
   12.1270   14.4319   23.4664 C   0  0  0  0  0  0  0  0  0  0  0  0
   10.8830   15.2849   23.3155 C   0  0  0  0  0  0  0  0  0  0  0  0
    9.8136   14.5881   22.4854 C   0  0  0  0  0  0  0  0  0  0  0  0
    8.5824   13.7221   23.4388 S   0  0  0  0  0  0  0  0  0  0  0  0
    7.6771   13.0743   22.5119 O   0  0  0  0  0  0  0  0  0  0  0  0
    8.0967   14.6249   24.4611 O   0  0  0  0  0  0  0  0  0  0  0  0
    9.4843   12.5409   24.2579 N   0  0  0  0  0  0  0  0  0  0  0  0
    8.8393   11.1917   24.4144 C   0  0  0  0  0  0  0  0  0  0  0  0
    7.8512   11.0820   25.5715 C   0  0  1  0  0  0  0  0  0  0  0  0
    6.8403   12.1847   25.7864 C   0  0  0  0  0  0  0  0  0  0  0  0
    5.7631   11.5611   26.6569 C   0  0  0  0  0  0  0  0  0  0  0  0
    6.0325   10.0688   26.6471 C   0  0  0  0  0  0  0  0  0  0  0  0
    7.0841    9.8358   25.6591 N   0  0  0  0  0  0  0  0  0  0  0  0
    8.8737   10.2602   23.2176 C   0  0  0  0  0  0  0  0  0  0  0  0
    9.7504    9.9596   24.3307 C   0  0  0  0  0  0  0  0  0  0  0  0
  1  2  1  0
  2  3  1  0
  3  4  1  0
  4  5  2  0
  4  6  2  0
  4  7  1  0
  7  8  1  0
  9  8  1  6
  9 10  1  0
 10 11  1  0
 11 12  1  0
 12 13  1  0
  8 14  1  0
 14 15  1  0
 15  8  1  0
 13  9  1  0
M  END
>  <inchikey>  (503) 
KKLAVPWGXVYYKK-UHFFFAOYSA-N

>  <energy_score>  (503) 
-56.908829

>  <subsites>  (503) 
1 - Active Site

>  <alias>  (503) 
C7620-P239

>  <tags>  (503) 
openbind_a71ev2a_c1_scaffolds,BulkDock Fragalysis export,openbind_a71ev2a_c1_knitwork_impure,fragmenstein_placed

>  <distance_score>  (503) 
0.988223

>  <placement_batch>  (503) 
openbind_a71ev2a_c1_knitwork_impure

>  <name>  (503) 
C7620-P239

>  <ref_mols>  (503) 
A0719a,A3920a

>  <smiles>  (503) 
CCCS(=O)(=O)NC1([C@H]2CCCN2)CC1

>  <HIPPO Compound ID>  (503) 
20140

>  <HIPPO Pose ID>  (503) 
440671

>  <ref_pdb>  (503) 
A4031a

$$$$
C11062-P176
     RDKit          3D

 26 29  0  0  0  0  0  0  0  0999 V2000
   19.5247   12.2861    2.9958 O   0  0  0  0  0  0  0  0  0  0  0  0
   19.6291   13.4315    2.8000 C   0  0  0  0  0  0  0  0  0  0  0  0
   18.3964   14.3593    2.6672 C   0  0  0  0  0  0  0  0  0  0  0  0
   18.7346   15.6999    2.1204 N   0  0  0  0  0  0  0  0  0  0  0  0
   17.6744   16.6880    2.4523 C   0  0  0  0  0  0  0  0  0  0  0  0
   16.3340   16.4962    1.7014 C   0  0  0  0  0  0  0  0  0  0  0  0
   16.5192   16.4429    0.2391 N   0  0  0  0  0  0  0  0  0  0  0  0
   16.6046   17.7002   -0.3833 C   0  0  0  0  0  0  0  0  0  0  0  0
   16.5799   17.7930   -1.7772 C   0  0  0  0  0  0  0  0  0  0  0  0
   16.6511   19.0387   -2.4001 C   0  0  0  0  0  0  0  0  0  0  0  0
   16.7338   20.1797   -1.6201 C   0  0  0  0  0  0  0  0  0  0  0  0
   16.7295   20.0192   -0.2487 C   0  0  0  0  0  0  0  0  0  0  0  0
   16.6585   18.8197    0.3728 N   0  0  0  0  0  0  0  0  0  0  0  0
   17.5561   15.4722   -0.1717 C   0  0  0  0  0  0  0  0  0  0  0  0
   18.8705   15.6568    0.6312 C   0  0  0  0  0  0  0  0  0  0  0  0
   20.8860   14.3232    2.7284 N   0  0  0  0  0  0  0  0  0  0  0  0
   22.2759   13.9793    2.7879 C   0  0  0  0  0  0  0  0  0  0  0  0
   22.7409   13.4830    1.4746 C   0  0  0  0  0  0  0  0  0  0  0  0
   22.1735   13.6488    0.2939 N   0  0  0  0  0  0  0  0  0  0  0  0
   22.9566   13.0280   -0.6515 N   0  0  0  0  0  0  0  0  0  0  0  0
   23.9940   12.5092   -0.0338 C   0  0  0  0  0  0  0  0  0  0  0  0
   23.9029   12.7834    1.3023 N   0  0  0  0  0  0  0  0  0  0  0  0
   24.9340   12.4935    2.2751 C   0  0  0  0  0  0  0  0  0  0  0  0
   25.9985   11.5294    1.7466 C   0  0  0  0  0  0  0  0  0  0  0  0
   26.3602   11.8346    0.2911 C   0  0  0  0  0  0  0  0  0  0  0  0
   25.1241   11.7386   -0.6067 C   0  0  0  0  0  0  0  0  0  0  0  0
  1  2  2  0
  2  3  1  0
  3  4  1  0
  4  5  1  0
  5  6  1  0
  6  7  1  0
  7  8  1  0
  8  9  2  0
  9 10  1  0
 10 11  2  0
 11 12  1  0
 12 13  2  0
  7 14  1  0
 14 15  1  0
  2 16  1  0
 16 17  1  0
 17 18  1  0
 18 19  2  0
 19 20  1  0
 20 21  2  0
 21 22  1  0
 22 23  1  0
 23 24  1  0
 24 25  1  0
 25 26  1  0
 15  4  1  0
 22 18  1  0
 13  8  1  0
 26 21  1  0
M  END
>  <inchikey>  (504) 
CCZWIXDZBGEKGT-UHFFFAOYSA-N

>  <energy_score>  (504) 
-43.624897

>  <subsites>  (504) 
6 - A0486/A/147/1,1 - Active Site

>  <alias>  (504) 
C11062-P176

>  <tags>  (504) 
openbind_a71ev2a_c1_scaffolds,BulkDock Fragalysis export,openbind_a71ev2a_c1_knitwork_impure,fragmenstein_placed

>  <distance_score>  (504) 
0.54078

>  <placement_batch>  (504) 
openbind_a71ev2a_c1_knitwork_impure

>  <name>  (504) 
C11062-P176

>  <ref_mols>  (504) 
A3392a,A0239a

>  <smiles>  (504) 
O=C(CN1CCN(c2ccccn2)CC1)NCc1nnc2n1CCCC2

>  <HIPPO Compound ID>  (504) 
2474

>  <HIPPO Pose ID>  (504) 
440945

>  <ref_pdb>  (504) 
A4031a

$$$$
C15027-P135
     RDKit          3D

 13 13  0  0  0  0  0  0  0  0999 V2000
   12.8886   16.2319   21.1719 C   0  0  0  0  0  0  0  0  0  0  0  0
   12.6537   15.0446   20.6080 C   0  0  0  0  0  0  0  0  0  0  0  0
   11.7322   13.9658   21.0905 C   0  0  0  0  0  0  0  0  0  0  0  0
   11.0363   14.0883   22.4536 C   0  0  0  0  0  0  0  0  0  0  0  0
   10.2206   14.9787   22.7219 O   0  0  0  0  0  0  0  0  0  0  0  0
   11.3246   13.0261   23.5189 C   0  0  2  0  0  0  0  0  0  0  0  0
   12.4709   12.2218   23.3423 O   0  0  0  0  0  0  0  0  0  0  0  0
   10.1071   12.2062   23.9245 C   0  0  0  0  0  0  0  0  0  0  0  0
    9.9741   10.8498   23.6189 C   0  0  0  0  0  0  0  0  0  0  0  0
    8.9053   10.1448   24.1481 C   0  0  0  0  0  0  0  0  0  0  0  0
    7.9488   10.6963   24.9279 N   0  0  0  0  0  0  0  0  0  0  0  0
    8.0520   12.0185   25.1635 C   0  0  0  0  0  0  0  0  0  0  0  0
    9.0947   12.8006   24.6943 C   0  0  0  0  0  0  0  0  0  0  0  0
  1  2  2  0
  2  3  1  0
  3  4  1  0
  4  5  2  0
  4  6  1  0
  6  7  1  6
  6  8  1  0
  8  9  2  0
  9 10  1  0
 10 11  2  0
 11 12  1  0
 12 13  2  0
 13  8  1  0
M  END
>  <inchikey>  (505) 
XHBNPKKACABHBA-UHFFFAOYSA-N

>  <energy_score>  (505) 
-2.42288

>  <subsites>  (505) 
1 - Active Site

>  <alias>  (505) 
C15027-P135

>  <tags>  (505) 
openbind_a71ev2a_c1_scaffolds,BulkDock Fragalysis export,openbind_a71ev2a_c1_knitwork_impure,fragmenstein_placed

>  <distance_score>  (505) 
0.722683

>  <placement_batch>  (505) 
openbind_a71ev2a_c1_knitwork_impure

>  <name>  (505) 
C15027-P135

>  <ref_mols>  (505) 
A0719a,A2629a

>  <smiles>  (505) 
C=CCC(=O)[C@H](O)c1ccncc1

>  <HIPPO Compound ID>  (505) 
2410

>  <HIPPO Pose ID>  (505) 
441161

>  <ref_pdb>  (505) 
A4031a

$$$$
C7654-P161
     RDKit          3D

 12 12  0  0  0  0  0  0  0  0999 V2000
   12.0991   14.9433   23.2730 C   0  0  0  0  0  0  0  0  0  0  0  0
   10.6594   15.1209   23.7127 C   0  0  0  0  0  0  0  0  0  0  0  0
    9.7335   14.8098   22.5527 C   0  0  0  0  0  0  0  0  0  0  0  0
    8.0059   14.7842   22.9816 S   0  0  0  0  0  0  0  0  0  0  0  0
    7.5924   16.1120   23.3665 O   0  0  0  0  0  0  0  0  0  0  0  0
    7.3022   14.0058   21.9833 O   0  0  0  0  0  0  0  0  0  0  0  0
    7.9564   13.8985   24.4244 N   0  0  0  0  0  0  0  0  0  0  0  0
    7.7343   12.4491   24.2644 C   0  0  2  0  0  0  0  0  0  0  0  0
    7.2061   11.8449   25.5512 C   0  0  0  0  0  0  0  0  0  0  0  0
    7.2469   10.3390   25.3900 C   0  0  0  0  0  0  0  0  0  0  0  0
    8.6226    9.9779   24.2760 S   0  0  0  0  0  0  0  0  0  0  0  0
    9.0115   11.7065   23.9132 C   0  0  0  0  0  0  0  0  0  0  0  0
  1  2  1  0
  2  3  1  0
  3  4  1  0
  4  5  2  0
  4  6  2  0
  4  7  1  0
  8  7  1  1
  8  9  1  0
  9 10  1  0
 10 11  1  0
 11 12  1  0
 12  8  1  0
M  END
>  <inchikey>  (506) 
FKANEGWUQJTCRE-UHFFFAOYSA-N

>  <energy_score>  (506) 
-27.091466

>  <subsites>  (506) 
1 - Active Site

>  <alias>  (506) 
C7654-P161

>  <tags>  (506) 
openbind_a71ev2a_c1_scaffolds,BulkDock Fragalysis export,openbind_a71ev2a_c1_knitwork_impure,fragmenstein_placed

>  <distance_score>  (506) 
0.972399

>  <placement_batch>  (506) 
openbind_a71ev2a_c1_knitwork_impure

>  <name>  (506) 
C7654-P161

>  <ref_mols>  (506) 
A3229a,A0719a

>  <smiles>  (506) 
CCCS(=O)(=O)N[C@@H]1CCSC1

>  <HIPPO Compound ID>  (506) 
10519

>  <HIPPO Pose ID>  (506) 
442185

>  <ref_pdb>  (506) 
A4031a

$$$$
C21692-P22
     RDKit          3D

 13 13  0  0  0  0  0  0  0  0999 V2000
    5.5953   14.5726   22.2841 N   0  0  0  0  0  0  0  0  0  0  0  0
    7.2251   14.4588   22.6747 S   0  0  0  0  0  0  0  0  0  0  0  0
    7.9389   15.4792   21.9494 O   0  0  0  0  0  0  0  0  0  0  0  0
    7.4785   13.0502   22.4773 O   0  0  0  0  0  0  0  0  0  0  0  0
    7.0841   14.9267   24.3879 C   0  0  0  0  0  0  0  0  0  0  0  0
    8.1166   14.3849   25.3513 C   0  0  0  0  0  0  0  0  0  0  0  0
    8.0198   12.8737   25.5116 C   0  0  0  0  0  0  0  0  0  0  0  0
    8.9416   12.0410   24.7717 N   0  0  0  0  0  0  0  0  0  0  0  0
    8.6318   10.6491   24.5588 C   0  0  0  0  0  0  0  0  0  0  0  0
    9.6756   10.1515   23.5783 C   0  0  0  0  0  0  0  0  0  0  0  0
   10.3606   11.3413   23.1816 N   0  0  0  0  0  0  0  0  0  0  0  0
    9.9156   12.4558   23.8618 C   0  0  0  0  0  0  0  0  0  0  0  0
   10.3163   13.5851   23.6503 O   0  0  0  0  0  0  0  0  0  0  0  0
  1  2  1  0
  2  3  2  0
  2  4  2  0
  2  5  1  0
  5  6  1  0
  6  7  1  0
  7  8  1  0
  8  9  1  0
  9 10  1  0
 10 11  1  0
 11 12  1  0
 12 13  2  0
 12  8  1  0
M  END
>  <inchikey>  (507) 
CPOAYBILPJRGSY-UHFFFAOYSA-N

>  <energy_score>  (507) 
-19.185788

>  <subsites>  (507) 
1 - Active Site

>  <alias>  (507) 
C21692-P22

>  <tags>  (507) 
openbind_a71ev2a_c1_scaffolds,BulkDock Fragalysis export,openbind_a71ev2a_c1_knitwork_impure,fragmenstein_placed

>  <distance_score>  (507) 
0.799439

>  <placement_batch>  (507) 
openbind_a71ev2a_c1_knitwork_impure

>  <name>  (507) 
C21692-P22

>  <ref_mols>  (507) 
A0719a,A0528a

>  <smiles>  (507) 
NS(=O)(=O)CCCN1CCNC1=O

>  <HIPPO Compound ID>  (507) 
20970

>  <HIPPO Pose ID>  (507) 
442584

>  <ref_pdb>  (507) 
A4031a

$$$$
C21693-P22
     RDKit          3D

 14 14  0  0  0  0  0  0  0  0999 V2000
    8.0020   14.5375   26.6218 C   0  0  0  0  0  0  0  0  0  0  0  0
    8.2477   14.3373   25.1221 C   0  0  2  0  0  0  0  0  0  0  0  0
    6.9610   14.6169   24.3704 C   0  0  0  0  0  0  0  0  0  0  0  0
    7.1157   14.4997   22.6077 S   0  0  0  0  0  0  0  0  0  0  0  0
    5.4758   14.5686   22.2515 N   0  0  0  0  0  0  0  0  0  0  0  0
    7.7589   15.6849   22.1014 O   0  0  0  0  0  0  0  0  0  0  0  0
    7.4892   13.1704   22.1753 O   0  0  0  0  0  0  0  0  0  0  0  0
    8.7938   12.9958   24.8441 N   0  0  0  0  0  0  0  0  0  0  0  0
    7.8973   11.8507   24.9465 C   0  0  0  0  0  0  0  0  0  0  0  0
    8.5883   10.5304   24.7877 C   0  0  0  0  0  0  0  0  0  0  0  0
    9.5620   10.5346   23.6469 C   0  0  0  0  0  0  0  0  0  0  0  0
   10.3396   11.7360   23.6134 N   0  0  0  0  0  0  0  0  0  0  0  0
    9.9227   12.9536   24.0379 C   0  0  0  0  0  0  0  0  0  0  0  0
   10.5570   13.9489   23.7045 O   0  0  0  0  0  0  0  0  0  0  0  0
  2  1  1  1
  2  3  1  0
  3  4  1  0
  4  5  1  0
  4  6  2  0
  4  7  2  0
  2  8  1  0
  8  9  1  0
  9 10  1  0
 10 11  1  0
 11 12  1  0
 12 13  1  0
 13 14  2  0
 13  8  1  0
M  END
>  <inchikey>  (508) 
JTEJVNYAELMDNE-UHFFFAOYSA-N

>  <energy_score>  (508) 
-46.691039

>  <subsites>  (508) 
1 - Active Site

>  <alias>  (508) 
C21693-P22

>  <tags>  (508) 
openbind_a71ev2a_c1_scaffolds,BulkDock Fragalysis export,openbind_a71ev2a_c1_knitwork_impure,fragmenstein_placed

>  <distance_score>  (508) 
0.695916

>  <placement_batch>  (508) 
openbind_a71ev2a_c1_knitwork_impure

>  <name>  (508) 
C21693-P22

>  <ref_mols>  (508) 
A0719a,A0528a

>  <smiles>  (508) 
C[C@H](CS(N)(=O)=O)N1CCCNC1=O

>  <HIPPO Compound ID>  (508) 
3863

>  <HIPPO Pose ID>  (508) 
442585

>  <ref_pdb>  (508) 
A4031a

$$$$
C30125-P22
     RDKit          3D

 19 20  0  0  0  0  0  0  0  0999 V2000
   12.9889   16.8883   21.2640 O   0  0  0  0  0  0  0  0  0  0  0  0
   12.4348   15.8501   21.5749 C   0  0  0  0  0  0  0  0  0  0  0  0
   11.2043   15.2881   20.9167 C   0  0  0  0  0  0  0  0  0  0  0  0
   10.7844   14.1617   21.8523 C   0  0  2  0  0  0  0  0  0  0  0  0
    9.8141   14.6415   22.8823 N   0  0  0  0  0  0  0  0  0  0  0  0
    8.1854   14.7277   22.4103 S   0  0  0  0  0  0  0  0  0  0  0  0
    8.1420   15.8836   21.5499 O   0  0  0  0  0  0  0  0  0  0  0  0
    7.7862   13.4168   21.9447 O   0  0  0  0  0  0  0  0  0  0  0  0
    7.3646   15.0850   23.9503 C   0  0  0  0  0  0  0  0  0  0  0  0
    8.0644   14.5418   25.1875 C   0  0  0  0  0  0  0  0  0  0  0  0
    7.6371   13.1483   25.6002 C   0  0  0  0  0  0  0  0  0  0  0  0
    8.0297   11.9960   24.8226 N   0  0  0  0  0  0  0  0  0  0  0  0
    9.3310   11.7626   24.2731 C   0  0  0  0  0  0  0  0  0  0  0  0
    9.3039   10.2930   23.9506 C   0  0  0  0  0  0  0  0  0  0  0  0
    8.3290    9.7553   24.8359 O   0  0  0  0  0  0  0  0  0  0  0  0
    7.5630   10.7824   25.3037 C   0  0  0  0  0  0  0  0  0  0  0  0
    6.6529   10.6339   26.1043 O   0  0  0  0  0  0  0  0  0  0  0  0
   12.1037   13.7620   22.5199 C   0  0  0  0  0  0  0  0  0  0  0  0
   12.8484   14.9878   22.5660 N   0  0  0  0  0  0  0  0  0  0  0  0
  1  2  2  0
  2  3  1  0
  3  4  1  0
  4  5  1  1
  5  6  1  0
  6  7  2  0
  6  8  2  0
  6  9  1  0
  9 10  1  0
 10 11  1  0
 11 12  1  0
 12 13  1  0
 13 14  1  0
 14 15  1  0
 15 16  1  0
 16 17  2  0
  4 18  1  0
 18 19  1  0
 19  2  1  0
 16 12  1  0
M  END
>  <inchikey>  (509) 
HASBCQSXHBUGKF-UHFFFAOYSA-N

>  <energy_score>  (509) 
-34.856771

>  <subsites>  (509) 
1 - Active Site

>  <alias>  (509) 
C30125-P22

>  <tags>  (509) 
openbind_a71ev2a_c1_scaffolds,BulkDock Fragalysis export,openbind_a71ev2a_c1_knitwork_impure,fragmenstein_placed

>  <distance_score>  (509) 
0.871473

>  <placement_batch>  (509) 
openbind_a71ev2a_c1_knitwork_impure

>  <name>  (509) 
C30125-P22

>  <ref_mols>  (509) 
A0719a,A0528a

>  <smiles>  (509) 
O=C1C[C@H](NS(=O)(=O)CCCN2CCOC2=O)CN1

>  <HIPPO Compound ID>  (509) 
27189

>  <HIPPO Pose ID>  (509) 
442592

>  <ref_pdb>  (509) 
A4031a

$$$$
C15027-P152
     RDKit          3D

 13 13  0  0  0  0  0  0  0  0999 V2000
   12.0132   14.3710   22.9574 C   0  0  0  0  0  0  0  0  0  0  0  0
   10.9096   14.8535   23.5403 C   0  0  0  0  0  0  0  0  0  0  0  0
    9.5692   14.9221   22.8704 C   0  0  0  0  0  0  0  0  0  0  0  0
    8.6513   13.7411   23.1484 C   0  0  0  0  0  0  0  0  0  0  0  0
    7.8204   13.3814   22.3017 O   0  0  0  0  0  0  0  0  0  0  0  0
    8.6615   13.1229   24.5446 C   0  0  1  0  0  0  0  0  0  0  0  0
    7.4931   13.6484   25.1860 O   0  0  0  0  0  0  0  0  0  0  0  0
    8.6598   11.6103   24.5244 C   0  0  0  0  0  0  0  0  0  0  0  0
    9.5113   10.8983   23.6689 C   0  0  0  0  0  0  0  0  0  0  0  0
    9.4896    9.5132   23.6987 C   0  0  0  0  0  0  0  0  0  0  0  0
    8.6946    8.8071   24.5245 N   0  0  0  0  0  0  0  0  0  0  0  0
    7.8761    9.5047   25.3320 C   0  0  0  0  0  0  0  0  0  0  0  0
    7.8348   10.8817   25.3825 C   0  0  0  0  0  0  0  0  0  0  0  0
  1  2  2  0
  2  3  1  0
  3  4  1  0
  4  5  2  0
  4  6  1  0
  6  7  1  1
  6  8  1  0
  8  9  2  0
  9 10  1  0
 10 11  2  0
 11 12  1  0
 12 13  2  0
 13  8  1  0
M  END
>  <inchikey>  (510) 
VGRJTUCBCKJLAN-UHFFFAOYSA-N

>  <energy_score>  (510) 
-9.321732

>  <subsites>  (510) 
1 - Active Site

>  <alias>  (510) 
C15027-P152

>  <tags>  (510) 
openbind_a71ev2a_c1_scaffolds,BulkDock Fragalysis export,openbind_a71ev2a_c1_knitwork_impure,fragmenstein_placed

>  <distance_score>  (510) 
0.922684

>  <placement_batch>  (510) 
openbind_a71ev2a_c1_knitwork_impure

>  <name>  (510) 
C15027-P152

>  <ref_mols>  (510) 
A3201a,A0719a

>  <smiles>  (510) 
C=CCC(=O)[C@@H](O)c1ccncc1

>  <HIPPO Compound ID>  (510) 
21569

>  <HIPPO Pose ID>  (510) 
442657

>  <ref_pdb>  (510) 
A4031a

$$$$
C15036-P152
     RDKit          3D

 14 14  0  0  0  0  0  0  0  0999 V2000
   12.3738   15.5950   21.6977 N   0  0  0  0  0  0  0  0  0  0  0  0
   11.6511   15.1890   22.5060 C   0  0  0  0  0  0  0  0  0  0  0  0
   10.6548   14.6956   23.4580 C   0  0  0  0  0  0  0  0  0  0  0  0
    9.3325   14.4918   22.7198 C   0  0  0  0  0  0  0  0  0  0  0  0
    8.2001   13.9389   23.4836 N   0  0  0  0  0  0  0  0  0  0  0  0
    8.2773   13.1404   24.9405 S   0  0  0  0  0  0  0  0  0  0  0  0
    9.3477   13.7090   25.7198 O   0  0  0  0  0  0  0  0  0  0  0  0
    6.9298   13.1242   25.4576 O   0  0  0  0  0  0  0  0  0  0  0  0
    8.6727   11.4852   24.5503 C   0  0  0  0  0  0  0  0  0  0  0  0
    9.5077   11.1294   23.5006 C   0  0  0  0  0  0  0  0  0  0  0  0
    9.7233    9.7836   23.2564 C   0  0  0  0  0  0  0  0  0  0  0  0
    9.1420    8.8626   24.0965 C   0  0  0  0  0  0  0  0  0  0  0  0
    8.2962    9.1751   25.1018 N   0  0  0  0  0  0  0  0  0  0  0  0
    8.0650   10.4897   25.2971 C   0  0  0  0  0  0  0  0  0  0  0  0
  1  2  3  0
  2  3  1  0
  3  4  1  0
  4  5  1  0
  5  6  1  0
  6  7  2  0
  6  8  2  0
  6  9  1  0
  9 10  2  0
 10 11  1  0
 11 12  2  0
 12 13  1  0
 13 14  2  0
 14  9  1  0
M  END
>  <inchikey>  (511) 
AYFIZZAEOIDREF-UHFFFAOYSA-N

>  <energy_score>  (511) 
-22.823828

>  <subsites>  (511) 
1 - Active Site

>  <alias>  (511) 
C15036-P152

>  <tags>  (511) 
openbind_a71ev2a_c1_scaffolds,BulkDock Fragalysis export,openbind_a71ev2a_c1_knitwork_impure,fragmenstein_placed

>  <distance_score>  (511) 
0.942247

>  <placement_batch>  (511) 
openbind_a71ev2a_c1_knitwork_impure

>  <name>  (511) 
C15036-P152

>  <ref_mols>  (511) 
A3201a,A0719a

>  <smiles>  (511) 
N#CCCNS(=O)(=O)c1cccnc1

>  <HIPPO Compound ID>  (511) 
1403

>  <HIPPO Pose ID>  (511) 
442663

>  <ref_pdb>  (511) 
A4031a

$$$$
C15044-P152
     RDKit          3D

 15 15  0  0  0  0  0  0  0  0999 V2000
   10.3877   14.9187   19.7831 N   0  0  0  0  0  0  0  0  0  0  0  0
   11.2038   15.1597   20.5694 C   0  0  0  0  0  0  0  0  0  0  0  0
   12.1618   15.4730   21.6312 C   0  0  0  0  0  0  0  0  0  0  0  0
   12.0928   14.4661   22.7804 C   0  0  0  0  0  0  0  0  0  0  0  0
   10.8643   14.6231   23.6745 C   0  0  0  0  0  0  0  0  0  0  0  0
    9.6579   14.2034   22.9830 N   0  0  0  0  0  0  0  0  0  0  0  0
    8.3222   13.6985   23.8512 S   0  0  0  0  0  0  0  0  0  0  0  0
    8.3873   14.3248   25.1562 O   0  0  0  0  0  0  0  0  0  0  0  0
    7.1926   13.8550   22.9619 O   0  0  0  0  0  0  0  0  0  0  0  0
    8.5305   11.9620   24.1287 C   0  0  0  0  0  0  0  0  0  0  0  0
    7.8080   11.3536   25.1446 C   0  0  0  0  0  0  0  0  0  0  0  0
    7.9787    9.9903   25.3092 C   0  0  0  0  0  0  0  0  0  0  0  0
    8.8548    9.3166   24.4631 C   0  0  0  0  0  0  0  0  0  0  0  0
    9.5316   10.0213   23.4825 C   0  0  0  0  0  0  0  0  0  0  0  0
    9.4088   11.3448   23.3037 N   0  0  0  0  0  0  0  0  0  0  0  0
  1  2  3  0
  2  3  1  0
  3  4  1  0
  4  5  1  0
  5  6  1  0
  6  7  1  0
  7  8  2  0
  7  9  2  0
  7 10  1  0
 10 11  2  0
 11 12  1  0
 12 13  2  0
 13 14  1  0
 14 15  2  0
 15 10  1  0
M  END
>  <inchikey>  (512) 
CLLVVLWRAOVKKD-UHFFFAOYSA-N

>  <energy_score>  (512) 
-25.150002

>  <subsites>  (512) 
1 - Active Site

>  <alias>  (512) 
C15044-P152

>  <tags>  (512) 
openbind_a71ev2a_c1_scaffolds,BulkDock Fragalysis export,openbind_a71ev2a_c1_knitwork_impure,fragmenstein_placed

>  <distance_score>  (512) 
0.838905

>  <placement_batch>  (512) 
openbind_a71ev2a_c1_knitwork_impure

>  <name>  (512) 
C15044-P152

>  <ref_mols>  (512) 
A3201a,A0719a

>  <smiles>  (512) 
N#CCCCNS(=O)(=O)c1ccccn1

>  <HIPPO Compound ID>  (512) 
29720

>  <HIPPO Pose ID>  (512) 
442668

>  <ref_pdb>  (512) 
A4031a

$$$$
C15045-P152
     RDKit          3D

 15 15  0  0  0  0  0  0  0  0999 V2000
   11.7349   15.1295   20.2359 C   0  0  0  0  0  0  0  0  0  0  0  0
   11.9962   15.5496   21.4809 C   0  0  0  0  0  0  0  0  0  0  0  0
   12.1571   14.6202   22.6416 C   0  0  0  0  0  0  0  0  0  0  0  0
   10.8786   14.5154   23.4731 C   0  0  0  0  0  0  0  0  0  0  0  0
    9.6873   14.1607   22.5854 C   0  0  0  0  0  0  0  0  0  0  0  0
    8.4325   13.6523   23.2393 C   0  0  0  0  0  0  0  0  0  0  0  0
    7.3859   13.6043   22.5769 O   0  0  0  0  0  0  0  0  0  0  0  0
    8.4819   13.0820   24.6476 C   0  0  1  0  0  0  0  0  0  0  0  0
    7.2773   13.5400   25.2767 O   0  0  0  0  0  0  0  0  0  0  0  0
    8.5634   11.5725   24.6393 C   0  0  0  0  0  0  0  0  0  0  0  0
    9.4627   10.8827   23.8121 C   0  0  0  0  0  0  0  0  0  0  0  0
    9.4656    9.4975   23.8275 C   0  0  0  0  0  0  0  0  0  0  0  0
    8.6543    8.7722   24.6172 N   0  0  0  0  0  0  0  0  0  0  0  0
    7.7979    9.4473   25.4042 C   0  0  0  0  0  0  0  0  0  0  0  0
    7.7269   10.8204   25.4635 C   0  0  0  0  0  0  0  0  0  0  0  0
  1  2  2  0
  2  3  1  0
  3  4  1  0
  4  5  1  0
  5  6  1  0
  6  7  2  0
  6  8  1  0
  8  9  1  1
  8 10  1  0
 10 11  2  0
 11 12  1  0
 12 13  2  0
 13 14  1  0
 14 15  2  0
 15 10  1  0
M  END
>  <inchikey>  (513) 
NETFXXUKTZUOOD-UHFFFAOYSA-N

>  <energy_score>  (513) 
-15.093235

>  <subsites>  (513) 
1 - Active Site

>  <alias>  (513) 
C15045-P152

>  <tags>  (513) 
openbind_a71ev2a_c1_scaffolds,BulkDock Fragalysis export,openbind_a71ev2a_c1_knitwork_impure,fragmenstein_placed

>  <distance_score>  (513) 
0.855267

>  <placement_batch>  (513) 
openbind_a71ev2a_c1_knitwork_impure

>  <name>  (513) 
C15045-P152

>  <ref_mols>  (513) 
A3201a,A0719a

>  <smiles>  (513) 
C=CCCCC(=O)[C@@H](O)c1ccncc1

>  <HIPPO Compound ID>  (513) 
7419

>  <HIPPO Pose ID>  (513) 
442669

>  <ref_pdb>  (513) 
A4031a

$$$$
C15065-P152
     RDKit          3D

 13 13  0  0  0  0  0  0  0  0999 V2000
   11.9162   14.6730   22.7777 C   0  0  0  0  0  0  0  0  0  0  0  0
   10.9517   14.7768   23.8200 O   0  0  0  0  0  0  0  0  0  0  0  0
    9.6457   15.1122   23.3404 C   0  0  0  0  0  0  0  0  0  0  0  0
    8.8283   13.8560   23.0504 C   0  0  2  0  0  0  0  0  0  0  0  0
    7.5659   14.1478   22.4462 O   0  0  0  0  0  0  0  0  0  0  0  0
    8.5263   13.1147   24.3446 C   0  0  0  0  0  0  0  0  0  0  0  0
    8.0194   13.6853   25.3117 O   0  0  0  0  0  0  0  0  0  0  0  0
    8.7170   11.6531   24.3693 C   0  0  0  0  0  0  0  0  0  0  0  0
    9.6102   10.9914   23.5281 C   0  0  0  0  0  0  0  0  0  0  0  0
    9.6966    9.6116   23.5808 C   0  0  0  0  0  0  0  0  0  0  0  0
    8.9117    8.9594   24.5026 C   0  0  0  0  0  0  0  0  0  0  0  0
    8.0275    9.5534   25.3329 N   0  0  0  0  0  0  0  0  0  0  0  0
    7.9452   10.8975   25.2408 C   0  0  0  0  0  0  0  0  0  0  0  0
  1  2  1  0
  2  3  1  0
  3  4  1  0
  4  5  1  1
  4  6  1  0
  6  7  2  0
  6  8  1  0
  8  9  2  0
  9 10  1  0
 10 11  2  0
 11 12  1  0
 12 13  2  0
 13  8  1  0
M  END
>  <inchikey>  (514) 
AHRHQIZZBXAYPC-UHFFFAOYSA-N

>  <energy_score>  (514) 
-21.381157

>  <subsites>  (514) 
1 - Active Site

>  <alias>  (514) 
C15065-P152

>  <tags>  (514) 
openbind_a71ev2a_c1_scaffolds,BulkDock Fragalysis export,openbind_a71ev2a_c1_knitwork_impure,fragmenstein_placed

>  <distance_score>  (514) 
0.988099

>  <placement_batch>  (514) 
openbind_a71ev2a_c1_knitwork_impure

>  <name>  (514) 
C15065-P152

>  <ref_mols>  (514) 
A3201a,A0719a

>  <smiles>  (514) 
COC[C@H](O)C(=O)c1cccnc1

>  <HIPPO Compound ID>  (514) 
8485

>  <HIPPO Pose ID>  (514) 
442685

>  <ref_pdb>  (514) 
A4031a

$$$$
C15067-P152
     RDKit          3D

 15 15  0  0  0  0  0  0  0  0999 V2000
   11.3226   14.9448   20.3388 C   0  0  0  0  0  0  0  0  0  0  0  0
   11.9368   15.4208   21.6491 C   0  0  0  0  0  0  0  0  0  0  0  0
   11.7051   14.4165   22.7770 C   0  0  0  0  0  0  0  0  0  0  0  0
   10.7742   14.8726   23.7625 O   0  0  0  0  0  0  0  0  0  0  0  0
    9.4471   15.0586   23.2985 C   0  0  0  0  0  0  0  0  0  0  0  0
    8.5820   13.8078   23.2958 C   0  0  0  0  0  0  0  0  0  0  0  0
    7.9186   13.4693   22.3081 O   0  0  0  0  0  0  0  0  0  0  0  0
    8.4707   13.0721   24.6193 C   0  0  1  0  0  0  0  0  0  0  0  0
    7.1871   13.4078   25.1472 O   0  0  0  0  0  0  0  0  0  0  0  0
    8.6463   11.5849   24.4762 C   0  0  0  0  0  0  0  0  0  0  0  0
    9.5080   11.0369   23.5184 C   0  0  0  0  0  0  0  0  0  0  0  0
    9.6823    9.6689   23.4454 C   0  0  0  0  0  0  0  0  0  0  0  0
    9.0282    8.8974   24.3719 C   0  0  0  0  0  0  0  0  0  0  0  0
    8.1737    9.3655   25.3068 N   0  0  0  0  0  0  0  0  0  0  0  0
    8.0013   10.7008   25.3331 C   0  0  0  0  0  0  0  0  0  0  0  0
  1  2  1  0
  2  3  1  0
  3  4  1  0
  4  5  1  0
  5  6  1  0
  6  7  2  0
  6  8  1  0
  8  9  1  6
  8 10  1  0
 10 11  2  0
 11 12  1  0
 12 13  2  0
 13 14  1  0
 14 15  2  0
 15 10  1  0
M  END
>  <inchikey>  (515) 
GQBDKUUPQMEZIN-UHFFFAOYSA-N

>  <energy_score>  (515) 
-19.434741

>  <subsites>  (515) 
1 - Active Site

>  <alias>  (515) 
C15067-P152

>  <tags>  (515) 
openbind_a71ev2a_c1_scaffolds,BulkDock Fragalysis export,openbind_a71ev2a_c1_knitwork_impure,fragmenstein_placed

>  <distance_score>  (515) 
0.990401

>  <placement_batch>  (515) 
openbind_a71ev2a_c1_knitwork_impure

>  <name>  (515) 
C15067-P152

>  <ref_mols>  (515) 
A3201a,A0719a

>  <smiles>  (515) 
CCCOCC(=O)[C@@H](O)c1cccnc1

>  <HIPPO Compound ID>  (515) 
8952

>  <HIPPO Pose ID>  (515) 
442687

>  <ref_pdb>  (515) 
A4031a

$$$$
C15070-P152
     RDKit          3D

 15 15  0  0  0  0  0  0  0  0999 V2000
   12.0787   15.5681   21.6300 C   0  0  0  0  0  0  0  0  0  0  0  0
   12.0652   14.4933   22.7071 C   0  0  0  0  0  0  0  0  0  0  0  0
   10.7813   14.4190   23.5563 C   0  0  1  0  0  0  0  0  0  0  0  0
   10.6694   15.6108   24.4944 C   0  0  0  0  0  0  0  0  0  0  0  0
    9.5254   14.2696   22.6739 C   0  0  0  0  0  0  0  0  0  0  0  0
    8.2241   13.9094   23.4002 C   0  0  1  0  0  0  0  0  0  0  0  0
    7.3036   13.3139   22.4805 O   0  0  0  0  0  0  0  0  0  0  0  0
    8.3833   13.0247   24.6320 C   0  0  0  0  0  0  0  0  0  0  0  0
    8.2720   13.4900   25.7661 O   0  0  0  0  0  0  0  0  0  0  0  0
    8.6236   11.5803   24.4642 C   0  0  0  0  0  0  0  0  0  0  0  0
    9.4489   11.0488   23.4762 C   0  0  0  0  0  0  0  0  0  0  0  0
    9.6421    9.6801   23.4186 C   0  0  0  0  0  0  0  0  0  0  0  0
    9.0215    8.9058   24.3696 C   0  0  0  0  0  0  0  0  0  0  0  0
    8.1836    9.3733   25.3223 N   0  0  0  0  0  0  0  0  0  0  0  0
    8.0050   10.7100   25.3485 C   0  0  0  0  0  0  0  0  0  0  0  0
  1  2  1  0
  2  3  1  0
  3  4  1  6
  3  5  1  0
  5  6  1  0
  6  7  1  6
  6  8  1  0
  8  9  2  0
  8 10  1  0
 10 11  2  0
 11 12  1  0
 12 13  2  0
 13 14  1  0
 14 15  2  0
 15 10  1  0
M  END
>  <inchikey>  (516) 
XLSHTFUPRUSZEF-UHFFFAOYSA-N

>  <energy_score>  (516) 
-31.520284

>  <subsites>  (516) 
1 - Active Site

>  <alias>  (516) 
C15070-P152

>  <tags>  (516) 
openbind_a71ev2a_c1_scaffolds,BulkDock Fragalysis export,openbind_a71ev2a_c1_knitwork_impure,fragmenstein_placed

>  <distance_score>  (516) 
0.769885

>  <placement_batch>  (516) 
openbind_a71ev2a_c1_knitwork_impure

>  <name>  (516) 
C15070-P152

>  <ref_mols>  (516) 
A3201a,A0719a

>  <smiles>  (516) 
CC[C@@H](C)C[C@@H](O)C(=O)c1cccnc1

>  <HIPPO Compound ID>  (516) 
6034

>  <HIPPO Pose ID>  (516) 
442690

>  <ref_pdb>  (516) 
A4031a

$$$$
C8138-P152
     RDKit          3D

 15 15  0  0  0  0  0  0  0  0999 V2000
   12.1229   15.5976   21.7673 C   0  0  0  0  0  0  0  0  0  0  0  0
   11.9870   14.4307   22.7371 C   0  0  0  0  0  0  0  0  0  0  0  0
   10.7861   14.4870   23.7027 C   0  0  1  0  0  0  0  0  0  0  0  0
   11.0370   15.4786   24.8369 C   0  0  0  0  0  0  0  0  0  0  0  0
    9.4558   14.7908   23.0019 C   0  0  0  0  0  0  0  0  0  0  0  0
    8.4010   13.7134   23.1298 C   0  0  0  0  0  0  0  0  0  0  0  0
    7.7326   13.3765   22.1446 O   0  0  0  0  0  0  0  0  0  0  0  0
    8.0979   13.1011   24.4955 C   0  0  2  0  0  0  0  0  0  0  0  0
    8.3481   13.9636   25.5976 O   0  0  0  0  0  0  0  0  0  0  0  0
    8.7328   11.7143   24.7537 C   0  0  0  0  0  0  0  0  0  0  0  0
    9.3755   11.0422   23.5358 C   0  0  0  0  0  0  0  0  0  0  0  0
    9.7476    9.5790   23.7432 C   0  0  0  0  0  0  0  0  0  0  0  0
    8.6698    8.7813   24.2899 N   0  0  0  0  0  0  0  0  0  0  0  0
    7.9851    9.3749   25.4162 C   0  0  0  0  0  0  0  0  0  0  0  0
    7.6149   10.8220   25.2869 C   0  0  0  0  0  0  0  0  0  0  0  0
  1  2  1  0
  2  3  1  0
  3  4  1  1
  3  5  1  0
  5  6  1  0
  6  7  2  0
  6  8  1  0
  8  9  1  1
  8 10  1  0
 10 11  1  0
 11 12  1  0
 12 13  1  0
 13 14  1  0
 14 15  1  0
 15 10  1  0
M  END
>  <inchikey>  (517) 
BGMXVHWUBCMRIH-UHFFFAOYSA-N

>  <energy_score>  (517) 
-30.046142

>  <subsites>  (517) 
1 - Active Site

>  <alias>  (517) 
C8138-P152

>  <tags>  (517) 
openbind_a71ev2a_c1_scaffolds,BulkDock Fragalysis export,openbind_a71ev2a_c1_knitwork_impure,fragmenstein_placed

>  <distance_score>  (517) 
0.919411

>  <placement_batch>  (517) 
openbind_a71ev2a_c1_knitwork_impure

>  <name>  (517) 
C8138-P152

>  <ref_mols>  (517) 
A3201a,A0719a

>  <smiles>  (517) 
CC[C@@H](C)CC(=O)[C@H](O)C1CCNCC1

>  <HIPPO Compound ID>  (517) 
1132

>  <HIPPO Pose ID>  (517) 
442698

>  <ref_pdb>  (517) 
A4031a

$$$$
C6248-P354
     RDKit          3D

 13 14  0  0  0  0  0  0  0  0999 V2000
    7.7027   11.4056   25.2454 C   0  0  0  0  0  0  0  0  0  0  0  0
    7.8351   12.7300   24.8665 C   0  0  0  0  0  0  0  0  0  0  0  0
    8.7149   13.0707   23.8253 C   0  0  0  0  0  0  0  0  0  0  0  0
    8.7289   14.5055   23.3383 C   0  0  1  0  0  0  0  0  0  0  0  0
    9.4537   15.4647   24.1453 N   0  0  0  0  0  0  0  0  0  0  0  0
   10.8276   15.1629   24.4840 C   0  0  0  0  0  0  0  0  0  0  0  0
   11.7926   14.8494   23.3492 C   0  0  0  0  0  0  0  0  0  0  0  0
   11.5338   15.6248   22.0638 C   0  0  0  0  0  0  0  0  0  0  0  0
   10.5821   14.8738   21.1472 C   0  0  0  0  0  0  0  0  0  0  0  0
    8.8132   14.8428   21.5706 S   0  0  0  0  0  0  0  0  0  0  0  0
    9.4789   12.0414   23.2747 C   0  0  0  0  0  0  0  0  0  0  0  0
    9.2766   10.7397   23.7174 C   0  0  0  0  0  0  0  0  0  0  0  0
    8.4024   10.4015   24.6892 N   0  0  0  0  0  0  0  0  0  0  0  0
  1  2  2  0
  2  3  1  0
  4  3  1  6
  4  5  1  0
  5  6  1  0
  6  7  1  0
  7  8  1  0
  8  9  1  0
  9 10  1  0
  3 11  2  0
 11 12  1  0
 12 13  2  0
 13  1  1  0
 10  4  1  0
M  END
>  <inchikey>  (518) 
MQWQJMQDCPGAHX-UHFFFAOYSA-N

>  <energy_score>  (518) 
-27.823855

>  <subsites>  (518) 
1 - Active Site

>  <alias>  (518) 
C6248-P354

>  <tags>  (518) 
openbind_a71ev2a_c1_scaffolds,BulkDock Fragalysis export,openbind_a71ev2a_c1_knitwork_impure,fragmenstein_placed

>  <distance_score>  (518) 
0.959614

>  <placement_batch>  (518) 
openbind_a71ev2a_c1_knitwork_impure

>  <name>  (518) 
C6248-P354

>  <ref_mols>  (518) 
A4415a,A2629a

>  <smiles>  (518) 
c1cc([C@H]2NCCCCS2)ccn1

>  <HIPPO Compound ID>  (518) 
29440

>  <HIPPO Pose ID>  (518) 
443589

>  <ref_pdb>  (518) 
A4031a

$$$$
C8138-P613
     RDKit          3D

 15 15  0  0  0  0  0  0  0  0999 V2000
   11.8319   14.6726   20.9788 C   0  0  0  0  0  0  0  0  0  0  0  0
   11.4292   14.8421   22.4336 C   0  0  0  0  0  0  0  0  0  0  0  0
   10.2144   15.7630   22.6145 C   0  0  1  0  0  0  0  0  0  0  0  0
   10.3523   16.9922   21.7007 C   0  0  0  0  0  0  0  0  0  0  0  0
    8.8700   15.1164   22.2605 C   0  0  0  0  0  0  0  0  0  0  0  0
    8.3813   13.8890   22.9993 C   0  0  0  0  0  0  0  0  0  0  0  0
    7.6045   13.1279   22.4149 O   0  0  0  0  0  0  0  0  0  0  0  0
    8.7617   13.6899   24.4650 C   0  0  1  0  0  0  0  0  0  0  0  0
    8.4700   14.8720   25.2094 O   0  0  0  0  0  0  0  0  0  0  0  0
    8.1224   12.4846   25.1711 C   0  0  0  0  0  0  0  0  0  0  0  0
    6.6656   12.6675   25.5994 C   0  0  0  0  0  0  0  0  0  0  0  0
    6.1163   11.4410   26.3311 C   0  0  0  0  0  0  0  0  0  0  0  0
    6.3533   10.1882   25.6268 N   0  0  0  0  0  0  0  0  0  0  0  0
    7.7560    9.9902   25.3035 C   0  0  0  0  0  0  0  0  0  0  0  0
    8.3965   11.1308   24.5265 C   0  0  0  0  0  0  0  0  0  0  0  0
  1  2  1  0
  2  3  1  0
  3  4  1  6
  3  5  1  0
  5  6  1  0
  6  7  2  0
  6  8  1  0
  8  9  1  1
  8 10  1  0
 10 11  1  0
 11 12  1  0
 12 13  1  0
 13 14  1  0
 14 15  1  0
 15 10  1  0
M  END
>  <inchikey>  (519) 
YASWEVOWOCSSRH-UHFFFAOYSA-N

>  <energy_score>  (519) 
-32.023699

>  <subsites>  (519) 
1 - Active Site

>  <alias>  (519) 
C8138-P613

>  <tags>  (519) 
openbind_a71ev2a_c1_scaffolds,BulkDock Fragalysis export,openbind_a71ev2a_c1_knitwork_impure,fragmenstein_placed

>  <distance_score>  (519) 
0.94673

>  <placement_batch>  (519) 
openbind_a71ev2a_c1_knitwork_impure

>  <name>  (519) 
C8138-P613

>  <ref_mols>  (519) 
A0719a,A5394b

>  <smiles>  (519) 
CC[C@@H](C)CC(=O)[C@@H](O)C1CCNCC1

>  <HIPPO Compound ID>  (519) 
1414

>  <HIPPO Pose ID>  (519) 
443907

>  <ref_pdb>  (519) 
A4742a

$$$$
C8142-P613
     RDKit          3D

 12 12  0  0  0  0  0  0  0  0999 V2000
   10.7842   15.2261   23.1785 C   0  0  0  0  0  0  0  0  0  0  0  0
    9.4880   14.8009   22.5351 C   0  0  0  0  0  0  0  0  0  0  0  0
    9.1160   15.3001   21.4712 O   0  0  0  0  0  0  0  0  0  0  0  0
    8.6699   13.6919   23.1757 C   0  0  0  0  0  0  0  0  0  0  0  0
    8.6441   13.7677   24.6933 C   0  0  1  0  0  0  0  0  0  0  0  0
    8.1348   15.0311   25.1133 O   0  0  0  0  0  0  0  0  0  0  0  0
    7.8849   12.6494   25.4260 C   0  0  1  0  0  0  0  0  0  0  0  0
    6.4039   12.8601   25.7113 C   0  0  0  0  0  0  0  0  0  0  0  0
    5.8790   11.7261   26.5989 C   0  0  0  0  0  0  0  0  0  0  0  0
    6.3001   10.3275   26.1519 C   0  0  0  0  0  0  0  0  0  0  0  0
    7.7113   10.2122   25.8101 N   0  0  0  0  0  0  0  0  0  0  0  0
    8.1694   11.2483   24.8923 C   0  0  0  0  0  0  0  0  0  0  0  0
  1  2  1  0
  2  3  2  0
  2  4  1  0
  4  5  1  0
  5  6  1  6
  5  7  1  0
  7  8  1  6
  8  9  1  0
  9 10  1  0
 10 11  1  0
 11 12  1  0
 12  7  1  0
M  END
>  <inchikey>  (520) 
CDOCJOQYVNDDOB-UHFFFAOYSA-N

>  <energy_score>  (520) 
-20.138477

>  <subsites>  (520) 
1 - Active Site

>  <alias>  (520) 
C8142-P613

>  <tags>  (520) 
openbind_a71ev2a_c1_scaffolds,BulkDock Fragalysis export,openbind_a71ev2a_c1_knitwork_impure,fragmenstein_placed

>  <distance_score>  (520) 
0.949483

>  <placement_batch>  (520) 
openbind_a71ev2a_c1_knitwork_impure

>  <name>  (520) 
C8142-P613

>  <ref_mols>  (520) 
A0719a,A5394b

>  <smiles>  (520) 
CC(=O)C[C@@H](O)[C@H]1CCCNC1

>  <HIPPO Compound ID>  (520) 
9982

>  <HIPPO Pose ID>  (520) 
443909

>  <ref_pdb>  (520) 
A4742a

$$$$
C8155-P613
     RDKit          3D

 16 16  0  0  0  0  0  0  0  0999 V2000
    8.6026   10.2072   24.7603 C   0  0  0  0  0  0  0  0  0  0  0  0
    7.3845    9.6475   25.3905 C   0  0  0  0  0  0  0  0  0  0  0  0
    6.5154   10.1606   26.2706 C   0  0  0  0  0  0  0  0  0  0  0  0
    6.5326   11.4426   26.9278 C   0  0  0  0  0  0  0  0  0  0  0  0
    6.7416   12.6584   26.4032 C   0  0  0  0  0  0  0  0  0  0  0  0
    6.9818   12.9962   24.9737 C   0  0  0  0  0  0  0  0  0  0  0  0
    8.3326   13.5564   24.8594 N   0  0  0  0  0  0  0  0  0  0  0  0
    8.9892   13.4239   23.3200 S   0  0  0  0  0  0  0  0  0  0  0  0
    7.8975   13.2093   22.3993 O   0  0  0  0  0  0  0  0  0  0  0  0
   10.0811   12.4907   23.4642 O   0  0  0  0  0  0  0  0  0  0  0  0
    9.5733   14.9794   23.1638 N   0  0  0  0  0  0  0  0  0  0  0  0
   10.8380   15.3288   23.8303 C   0  0  0  0  0  0  0  0  0  0  0  0
   12.0239   15.0555   22.9127 C   0  0  0  0  0  0  0  0  0  0  0  0
   11.8686   15.7689   21.5724 C   0  0  0  0  0  0  0  0  0  0  0  0
   10.5395   15.3992   20.9221 C   0  0  0  0  0  0  0  0  0  0  0  0
    9.3779   15.6758   21.8669 C   0  0  0  0  0  0  0  0  0  0  0  0
  1  2  1  0
  2  3  2  3
  3  4  1  0
  4  5  2  3
  5  6  1  0
  6  7  1  0
  7  8  1  0
  8  9  2  0
  8 10  2  0
  8 11  1  0
 11 12  1  0
 12 13  1  0
 13 14  1  0
 14 15  1  0
 15 16  1  0
 16 11  1  0
M  END
>  <inchikey>  (521) 
CNXDKPPPZXXLRJ-UHFFFAOYSA-N

>  <energy_score>  (521) 
-33.816743

>  <subsites>  (521) 
1 - Active Site

>  <alias>  (521) 
C8155-P613

>  <tags>  (521) 
openbind_a71ev2a_c1_scaffolds,BulkDock Fragalysis export,openbind_a71ev2a_c1_knitwork_impure,fragmenstein_placed

>  <distance_score>  (521) 
0.927359

>  <placement_batch>  (521) 
openbind_a71ev2a_c1_knitwork_impure

>  <name>  (521) 
C8155-P613

>  <ref_mols>  (521) 
A0719a,A5394b

>  <smiles>  (521) 
CC=CC=CCNS(=O)(=O)N1CCCCC1

>  <HIPPO Compound ID>  (521) 
7466

>  <HIPPO Pose ID>  (521) 
443916

>  <ref_pdb>  (521) 
A4742a

$$$$
C8176-P613
     RDKit          3D

 15 15  0  0  0  0  0  0  0  0999 V2000
    8.2299   15.0989   25.3938 C   0  0  0  0  0  0  0  0  0  0  0  0
    8.7095   13.7799   24.7788 C   0  0  2  0  0  0  0  0  0  0  0  0
   10.0670   13.6073   25.2203 O   0  0  0  0  0  0  0  0  0  0  0  0
    8.6752   13.9067   23.2391 C   0  0  0  0  0  0  0  0  0  0  0  0
    7.8620   13.2587   22.5678 O   0  0  0  0  0  0  0  0  0  0  0  0
    9.7042   14.8480   22.6040 C   0  0  0  0  0  0  0  0  0  0  0  0
    9.9942   15.9387   23.3622 F   0  0  0  0  0  0  0  0  0  0  0  0
    9.2928   15.3236   21.3981 F   0  0  0  0  0  0  0  0  0  0  0  0
   11.3510   13.8418   22.3700 Br  0  0  0  0  0  0  0  0  0  0  0  0
    7.9063   12.5968   25.3855 C   0  0  1  0  0  0  0  0  0  0  0  0
    6.4295   12.8033   25.7107 C   0  0  0  0  0  0  0  0  0  0  0  0
    5.9242   11.6386   26.5697 C   0  0  0  0  0  0  0  0  0  0  0  0
    6.3388   10.2564   26.0735 C   0  0  0  0  0  0  0  0  0  0  0  0
    7.7215   10.1466   25.6264 N   0  0  0  0  0  0  0  0  0  0  0  0
    8.1383   11.2304   24.7412 C   0  0  0  0  0  0  0  0  0  0  0  0
  2  1  1  1
  2  3  1  0
  2  4  1  0
  4  5  2  0
  4  6  1  0
  6  7  1  0
  6  8  1  0
  6  9  1  0
  2 10  1  0
 10 11  1  6
 11 12  1  0
 12 13  1  0
 13 14  1  0
 14 15  1  0
 15 10  1  0
M  END
>  <inchikey>  (522) 
PZDAOJKGMJJGDC-UHFFFAOYSA-N

>  <energy_score>  (522) 
-24.343822

>  <subsites>  (522) 
1 - Active Site

>  <alias>  (522) 
C8176-P613

>  <tags>  (522) 
openbind_a71ev2a_c1_scaffolds,BulkDock Fragalysis export,openbind_a71ev2a_c1_knitwork_impure,fragmenstein_placed

>  <distance_score>  (522) 
0.942977

>  <placement_batch>  (522) 
openbind_a71ev2a_c1_knitwork_impure

>  <name>  (522) 
C8176-P613

>  <ref_mols>  (522) 
A0719a,A5394b

>  <smiles>  (522) 
C[C@](O)(C(=O)C(F)(F)Br)[C@H]1CCCNC1

>  <HIPPO Compound ID>  (522) 
11231

>  <HIPPO Pose ID>  (522) 
443930

>  <ref_pdb>  (522) 
A4742a

$$$$
C8841-P444
     RDKit          3D

 15 17  0  0  0  0  0  0  0  0999 V2000
    6.3044   17.4322   25.6303 C   0  0  0  0  0  0  0  0  0  0  0  0
    6.8881   16.3357   26.2255 C   0  0  0  0  0  0  0  0  0  0  0  0
    7.1551   15.3045   25.2776 C   0  0  0  0  0  0  0  0  0  0  0  0
    6.7780   15.6649   24.0034 C   0  0  0  0  0  0  0  0  0  0  0  0
    6.0708   17.1978   23.9532 S   0  0  0  0  0  0  0  0  0  0  0  0
    6.9079   14.7994   22.7932 C   0  0  0  0  0  0  0  0  0  0  0  0
    7.9377   13.7574   22.9624 N   0  0  0  0  0  0  0  0  0  0  0  0
    9.3216   14.0777   22.5343 C   0  0  2  0  0  0  0  0  0  0  0  0
   10.3300   14.5339   23.6053 C   0  0  0  0  0  0  0  0  0  0  0  0
   11.7304   14.6319   22.9941 C   0  0  0  0  0  0  0  0  0  0  0  0
   11.7586   15.5461   21.7734 C   0  0  0  0  0  0  0  0  0  0  0  0
   10.7991   15.0925   20.7766 N   0  0  0  0  0  0  0  0  0  0  0  0
    9.4402   15.0374   21.3126 C   0  0  0  0  0  0  0  0  0  0  0  0
    7.8062   13.0808   24.2676 C   0  0  0  0  0  0  0  0  0  0  0  0
    7.7946   13.9862   25.5278 C   0  0  0  0  0  0  0  0  0  0  0  0
  1  2  2  0
  2  3  1  0
  3  4  2  0
  4  5  1  0
  4  6  1  0
  6  7  1  0
  8  7  1  1
  8  9  1  0
  9 10  1  0
 10 11  1  0
 11 12  1  0
 12 13  1  0
  7 14  1  0
 14 15  1  0
  5  1  1  0
 13  8  1  0
 15  3  1  0
M  END
>  <inchikey>  (523) 
RFEZRTLYXHCHBF-UHFFFAOYSA-N

>  <energy_score>  (523) 
-46.592856

>  <subsites>  (523) 
1 - Active Site

>  <alias>  (523) 
C8841-P444

>  <tags>  (523) 
openbind_a71ev2a_c1_scaffolds,BulkDock Fragalysis export,openbind_a71ev2a_c1_knitwork_impure,fragmenstein_placed

>  <distance_score>  (523) 
0.989565

>  <placement_batch>  (523) 
openbind_a71ev2a_c1_knitwork_impure

>  <name>  (523) 
C8841-P444

>  <ref_mols>  (523) 
A1778a,A4712a

>  <smiles>  (523) 
c1cc2c(s1)CN([C@@H]1CCCNC1)CC2

>  <HIPPO Compound ID>  (523) 
8841

>  <HIPPO Pose ID>  (523) 
444069

>  <ref_pdb>  (523) 
A4742a

$$$$
C8848-P444
     RDKit          3D

 15 17  0  0  0  0  0  0  0  0999 V2000
    3.6998   14.0798   25.2359 C   0  0  0  0  0  0  0  0  0  0  0  0
    4.6301   13.1142   25.5563 C   0  0  0  0  0  0  0  0  0  0  0  0
    5.8477   13.3044   24.8442 C   0  0  0  0  0  0  0  0  0  0  0  0
    5.8007   14.4010   24.0123 C   0  0  0  0  0  0  0  0  0  0  0  0
    4.2978   15.1996   24.0849 S   0  0  0  0  0  0  0  0  0  0  0  0
    6.9325   14.8972   23.1561 C   0  0  0  0  0  0  0  0  0  0  0  0
    8.2470   14.1943   23.3749 N   0  0  0  0  0  0  0  0  0  0  0  0
    9.3498   15.2100   23.2981 C   0  0  0  0  0  0  0  0  0  0  0  0
   10.7516   14.7333   23.7322 C   0  0  0  0  0  0  0  0  0  0  0  0
   11.3852   13.8081   22.7063 C   0  0  0  0  0  0  0  0  0  0  0  0
   11.5112   14.4820   21.4208 N   0  0  0  0  0  0  0  0  0  0  0  0
   10.2004   14.8959   20.9154 C   0  0  0  0  0  0  0  0  0  0  0  0
    9.4947   15.8283   21.8900 C   0  0  0  0  0  0  0  0  0  0  0  0
    8.2966   13.4400   24.6518 C   0  0  0  0  0  0  0  0  0  0  0  0
    7.0955   12.5071   24.9086 C   0  0  0  0  0  0  0  0  0  0  0  0
  1  2  2  0
  2  3  1  0
  3  4  2  0
  4  5  1  0
  4  6  1  0
  6  7  1  0
  7  8  1  0
  8  9  1  0
  9 10  1  0
 10 11  1  0
 11 12  1  0
 12 13  1  0
  7 14  1  0
 14 15  1  0
  5  1  1  0
 13  8  1  0
 15  3  1  0
M  END
>  <inchikey>  (524) 
ZRDHPXNIJIQHOP-UHFFFAOYSA-N

>  <energy_score>  (524) 
-44.502938

>  <subsites>  (524) 
1 - Active Site

>  <alias>  (524) 
C8848-P444

>  <tags>  (524) 
openbind_a71ev2a_c1_scaffolds,BulkDock Fragalysis export,openbind_a71ev2a_c1_knitwork_impure,fragmenstein_placed

>  <distance_score>  (524) 
0.99128

>  <placement_batch>  (524) 
openbind_a71ev2a_c1_knitwork_impure

>  <name>  (524) 
C8848-P444

>  <ref_mols>  (524) 
A1778a,A4712a

>  <smiles>  (524) 
c1cc2c(s1)CN(C1CCNCC1)CC2

>  <HIPPO Compound ID>  (524) 
1386

>  <HIPPO Pose ID>  (524) 
444076

>  <ref_pdb>  (524) 
A4742a

$$$$
C7479-P274
     RDKit          3D

 23 24  0  0  0  0  0  0  0  0999 V2000
    3.4723   12.3835   18.1990 C   0  0  0  0  0  0  0  0  0  0  0  0
    3.3598   12.6105   19.7063 C   0  0  0  0  0  0  0  0  0  0  0  0
    2.3188   11.6679   20.3096 C   0  0  0  0  0  0  0  0  0  0  0  0
    3.0367   14.0215   20.0252 C   0  0  0  0  0  0  0  0  0  0  0  0
    2.0884   14.6096   19.2379 O   0  0  0  0  0  0  0  0  0  0  0  0
    2.0003   15.8719   19.7083 C   0  0  0  0  0  0  0  0  0  0  0  0
    2.7848   16.1485   20.7292 N   0  0  0  0  0  0  0  0  0  0  0  0
    3.4359   14.9471   20.9762 C   0  0  0  0  0  0  0  0  0  0  0  0
    4.3697   14.7851   22.1394 C   0  0  0  0  0  0  0  0  0  0  0  0
    5.6190   15.4679   21.8401 N   0  0  0  0  0  0  0  0  0  0  0  0
    7.0580   14.7269   22.2509 S   0  0  0  0  0  0  0  0  0  0  0  0
    6.8591   13.3543   21.8050 O   0  0  0  0  0  0  0  0  0  0  0  0
    8.0139   15.4808   21.4654 O   0  0  0  0  0  0  0  0  0  0  0  0
    7.0185   14.9497   23.7679 N   0  0  0  0  0  0  0  0  0  0  0  0
    8.3691   14.6407   24.4405 S   0  0  2  0  0  0  0  0  0  0  0  0
    8.2137   15.2498   26.1091 C   0  0  0  0  0  0  0  0  0  0  0  0
    9.6460   15.1448   23.9789 O   0  0  0  0  0  0  0  0  0  0  0  0
    8.5951   12.8685   24.7262 C   0  0  0  0  0  0  0  0  0  0  0  0
    9.3393   12.1964   23.5752 C   0  0  0  0  0  0  0  0  0  0  0  0
    9.3776   10.6707   23.6010 C   0  0  0  0  0  0  0  0  0  0  0  0
    8.2348    9.9493   24.2909 C   0  0  0  0  0  0  0  0  0  0  0  0
    7.4834   10.7085   25.3664 C   0  0  0  0  0  0  0  0  0  0  0  0
    7.2857   12.1764   25.0549 C   0  0  0  0  0  0  0  0  0  0  0  0
  1  2  1  0
  2  3  1  0
  2  4  1  0
  4  5  1  0
  5  6  1  0
  6  7  2  0
  7  8  1  0
  8  9  1  0
  9 10  1  0
 10 11  1  0
 11 12  2  0
 11 13  2  0
 11 14  1  0
 14 15  2  0
 15 16  1  1
 15 17  2  0
 15 18  1  0
 18 19  1  0
 19 20  1  0
 20 21  1  0
 21 22  1  0
 22 23  1  0
  8  4  2  0
 23 18  1  0
M  END
>  <inchikey>  (525) 
QFZBMJQUWWNYIL-UHFFFAOYSA-N

>  <energy_score>  (525) 
-238.204962

>  <subsites>  (525) 
1 - Active Site

>  <alias>  (525) 
C7479-P274

>  <tags>  (525) 
openbind_a71ev2a_c1_scaffolds,BulkDock Fragalysis export,openbind_a71ev2a_c1_knitwork_impure,fragmenstein_placed

>  <distance_score>  (525) 
0.969972

>  <placement_batch>  (525) 
openbind_a71ev2a_c1_knitwork_impure

>  <name>  (525) 
C7479-P274

>  <ref_mols>  (525) 
A3623a,A4031a

>  <smiles>  (525) 
CC(C)c1ocnc1CNS(=O)(=O)N=[S@](C)(=O)C1CCCCC1

>  <HIPPO Compound ID>  (525) 
29031

>  <HIPPO Pose ID>  (525) 
444178

>  <ref_pdb>  (525) 
A4742a

$$$$
C9954-P364
     RDKit          3D

 10 10  0  0  0  0  0  0  0  0999 V2000
    9.1988   13.2764   26.4699 O   0  0  0  0  0  0  0  0  0  0  0  0
    9.9012   13.1797   25.4659 C   0  0  0  0  0  0  0  0  0  0  0  0
    9.3563   12.6697   24.1699 C   0  0  0  0  0  0  0  0  0  0  0  0
    8.9490   13.8596   23.3228 C   0  0  0  0  0  0  0  0  0  0  0  0
    9.9362   14.3125   22.3602 N   0  0  0  0  0  0  0  0  0  0  0  0
    9.5442   15.2264   21.3034 C   0  0  0  0  0  0  0  0  0  0  0  0
   10.8280   15.4251   20.5210 C   0  0  0  0  0  0  0  0  0  0  0  0
   11.8381   15.1645   21.5068 N   0  0  0  0  0  0  0  0  0  0  0  0
   11.3236   14.3738   22.5256 C   0  0  0  0  0  0  0  0  0  0  0  0
   11.9980   13.8544   23.4000 O   0  0  0  0  0  0  0  0  0  0  0  0
  1  2  2  0
  2  3  1  0
  3  4  1  0
  4  5  1  0
  5  6  1  0
  6  7  1  0
  7  8  1  0
  8  9  1  0
  9 10  2  0
  9  5  1  0
M  END
>  <inchikey>  (526) 
BDYCYAQORNKNIO-UHFFFAOYSA-N

>  <energy_score>  (526) 
-32.92993

>  <subsites>  (526) 
1 - Active Site

>  <alias>  (526) 
C9954-P364

>  <tags>  (526) 
openbind_a71ev2a_c1_scaffolds,BulkDock Fragalysis export,openbind_a71ev2a_c1_knitwork_impure,fragmenstein_placed

>  <distance_score>  (526) 
0.886334

>  <placement_batch>  (526) 
openbind_a71ev2a_c1_knitwork_impure

>  <name>  (526) 
C9954-P364

>  <ref_mols>  (526) 
A4445b,A0528a

>  <smiles>  (526) 
O=CCCN1CCNC1=O

>  <HIPPO Compound ID>  (526) 
14594

>  <HIPPO Pose ID>  (526) 
444441

>  <ref_pdb>  (526) 
A4742a

$$$$
C6291-P213
     RDKit          3D

 10 11  0  0  0  0  0  0  0  0999 V2000
    6.3559   10.3382   26.2261 C   0  0  0  0  0  0  0  0  0  0  0  0
    7.4140   10.0307   25.3832 C   0  0  0  0  0  0  0  0  0  0  0  0
    8.2315   11.0378   24.8469 C   0  0  0  0  0  0  0  0  0  0  0  0
    9.5606   10.7547   24.0425 C   0  0  1  0  0  0  0  0  0  0  0  0
   10.1024    9.3212   23.8829 C   0  0  0  0  0  0  0  0  0  0  0  0
    9.7390    9.4166   22.4333 C   0  0  0  0  0  0  0  0  0  0  0  0
    9.3633   10.8165   22.6126 N   0  0  0  0  0  0  0  0  0  0  0  0
    7.8276   12.3478   25.1473 C   0  0  0  0  0  0  0  0  0  0  0  0
    6.7408   12.5731   25.9837 C   0  0  0  0  0  0  0  0  0  0  0  0
    6.0213   11.5923   26.5657 N   0  0  0  0  0  0  0  0  0  0  0  0
  1  2  2  0
  2  3  1  0
  4  3  1  1
  4  5  1  0
  5  6  1  0
  6  7  1  0
  3  8  2  0
  8  9  1  0
  9 10  2  0
 10  1  1  0
  7  4  1  0
M  END
>  <inchikey>  (527) 
KVVWFFVCOKKVCV-UHFFFAOYSA-N

>  <energy_score>  (527) 
-5.273602

>  <subsites>  (527) 
1 - Active Site

>  <alias>  (527) 
C6291-P213

>  <tags>  (527) 
openbind_a71ev2a_c1_scaffolds,BulkDock Fragalysis export,openbind_a71ev2a_c1_knitwork_impure,fragmenstein_placed

>  <distance_score>  (527) 
0.814063

>  <placement_batch>  (527) 
openbind_a71ev2a_c1_knitwork_impure

>  <name>  (527) 
C6291-P213

>  <ref_mols>  (527) 
A3548a,A2629a

>  <smiles>  (527) 
c1cc([C@H]2CCN2)ccn1

>  <HIPPO Compound ID>  (527) 
1304

>  <HIPPO Pose ID>  (527) 
445139

>  <ref_pdb>  (527) 
A0586a

$$$$
C6773-P441
     RDKit          3D

 12 13  0  0  0  0  0  0  0  0999 V2000
    8.0032   10.6517   25.3100 C   0  0  0  0  0  0  0  0  0  0  0  0
    8.8263   10.3739   24.2960 N   0  0  0  0  0  0  0  0  0  0  0  0
    9.3425   11.4431   23.6651 C   0  0  0  0  0  0  0  0  0  0  0  0
    9.0900   12.7547   24.0335 C   0  0  0  0  0  0  0  0  0  0  0  0
    9.5585   13.9631   23.2619 C   0  0  1  0  0  0  0  0  0  0  0  0
   11.0637   13.8661   22.9222 C   0  0  0  0  0  0  0  0  0  0  0  0
   11.6485   15.2649   21.9372 S   0  0  0  0  0  0  0  0  0  0  0  0
   10.4154   15.1099   20.6197 C   0  0  0  0  0  0  0  0  0  0  0  0
    9.0106   15.1836   21.2061 C   0  0  0  0  0  0  0  0  0  0  0  0
    8.6425   14.0981   22.1186 N   0  0  0  0  0  0  0  0  0  0  0  0
    8.2315   12.8960   25.1021 C   0  0  0  0  0  0  0  0  0  0  0  0
    7.6718   11.8679   25.7602 N   0  0  0  0  0  0  0  0  0  0  0  0
  1  2  2  0
  2  3  1  0
  3  4  2  0
  5  4  1  6
  5  6  1  0
  6  7  1  0
  7  8  1  0
  8  9  1  0
  9 10  1  0
  4 11  1  0
 11 12  2  0
 12  1  1  0
 10  5  1  0
M  END
>  <inchikey>  (528) 
PIQMDRWGSNHVCK-UHFFFAOYSA-N

>  <energy_score>  (528) 
-26.538204

>  <subsites>  (528) 
1 - Active Site

>  <alias>  (528) 
C6773-P441

>  <tags>  (528) 
openbind_a71ev2a_c1_scaffolds,BulkDock Fragalysis export,openbind_a71ev2a_c1_knitwork_impure,fragmenstein_placed

>  <distance_score>  (528) 
0.987039

>  <placement_batch>  (528) 
openbind_a71ev2a_c1_knitwork_impure

>  <name>  (528) 
C6773-P441

>  <ref_mols>  (528) 
A4708a,A1068a

>  <smiles>  (528) 
c1ncc([C@H]2CSCCN2)cn1

>  <HIPPO Compound ID>  (528) 
6773

>  <HIPPO Pose ID>  (528) 
445187

>  <ref_pdb>  (528) 
A0586a

$$$$
C6812-P441
     RDKit          3D

 11 12  0  0  0  0  0  0  0  0999 V2000
    9.2874   10.4201   23.8446 C   0  0  0  0  0  0  0  0  0  0  0  0
    9.6640   11.6356   23.3133 C   0  0  0  0  0  0  0  0  0  0  0  0
    9.0626   12.7788   23.8031 C   0  0  0  0  0  0  0  0  0  0  0  0
    9.4083   14.0563   23.3645 N   0  0  0  0  0  0  0  0  0  0  0  0
   10.8335   14.3657   23.1691 C   0  0  0  0  0  0  0  0  0  0  0  0
   10.9114   15.2198   21.9096 C   0  0  0  0  0  0  0  0  0  0  0  0
    9.6885   14.8037   21.1235 C   0  0  0  0  0  0  0  0  0  0  0  0
    8.6433   14.5321   22.1996 C   0  0  0  0  0  0  0  0  0  0  0  0
    8.0942   12.6796   24.7286 N   0  0  0  0  0  0  0  0  0  0  0  0
    7.7955   11.4510   25.1849 C   0  0  0  0  0  0  0  0  0  0  0  0
    8.3551   10.2987   24.7977 N   0  0  0  0  0  0  0  0  0  0  0  0
  1  2  2  0
  2  3  1  0
  3  4  1  0
  4  5  1  0
  5  6  1  0
  6  7  1  0
  7  8  1  0
  3  9  2  0
  9 10  1  0
 10 11  2  0
 11  1  1  0
  8  4  1  0
M  END
>  <inchikey>  (529) 
WZRAVWCMDRGDQR-UHFFFAOYSA-N

>  <energy_score>  (529) 
-8.374842

>  <subsites>  (529) 
1 - Active Site

>  <alias>  (529) 
C6812-P441

>  <tags>  (529) 
openbind_a71ev2a_c1_scaffolds,BulkDock Fragalysis export,openbind_a71ev2a_c1_knitwork_impure,fragmenstein_placed

>  <distance_score>  (529) 
0.951889

>  <placement_batch>  (529) 
openbind_a71ev2a_c1_knitwork_impure

>  <name>  (529) 
C6812-P441

>  <ref_mols>  (529) 
A4708a,A1068a

>  <smiles>  (529) 
c1cc(N2CCCC2)ncn1

>  <HIPPO Compound ID>  (529) 
6812

>  <HIPPO Pose ID>  (529) 
445205

>  <ref_pdb>  (529) 
A0586a

$$$$
C961-P187
     RDKit          3D

 18 20  0  0  0  0  0  0  0  0999 V2000
   25.9706   13.2889   -2.3131 O   0  0  0  0  0  0  0  0  0  0  0  0
   25.0231   12.7463   -1.8918 C   0  0  0  0  0  0  0  0  0  0  0  0
   23.6871   12.3562   -2.5941 N   0  0  0  0  0  0  0  0  0  0  0  0
   23.3079   12.4643   -3.9057 N   0  0  0  0  0  0  0  0  0  0  0  0
   21.9761   12.2666   -4.1438 C   0  0  0  0  0  0  0  0  0  0  0  0
   21.1462   11.5905   -3.4156 N   0  0  0  0  0  0  0  0  0  0  0  0
   19.8163   11.5917   -4.0543 C   0  0  0  0  0  0  0  0  0  0  0  0
   19.6656   12.8204   -4.9337 C   0  0  0  0  0  0  0  0  0  0  0  0
   21.3328   13.0447   -5.5728 S   0  0  0  0  0  0  0  0  0  0  0  0
   24.9487   12.1978   -0.4512 C   0  0  1  0  0  0  0  0  0  0  0  0
   26.3127   12.3180    0.2609 C   0  0  0  0  0  0  0  0  0  0  0  0
   26.1918   12.0450    1.7632 C   0  0  0  0  0  0  0  0  0  0  0  0
   25.2381   13.0401    2.4243 C   0  0  0  0  0  0  0  0  0  0  0  0
   24.0435   13.2467    1.6405 N   0  0  0  0  0  0  0  0  0  0  0  0
   22.8905   13.8481    2.0238 C   0  0  0  0  0  0  0  0  0  0  0  0
   22.0523   13.8575    1.0113 N   0  0  0  0  0  0  0  0  0  0  0  0
   22.6761   13.2504   -0.0568 N   0  0  0  0  0  0  0  0  0  0  0  0
   23.8907   12.9112    0.3231 C   0  0  0  0  0  0  0  0  0  0  0  0
  1  2  2  0
  2  3  1  0
  3  4  1  0
  4  5  1  0
  5  6  2  0
  6  7  1  0
  7  8  1  0
  8  9  1  0
 10  2  1  6
 10 11  1  0
 11 12  1  0
 12 13  1  0
 13 14  1  0
 14 15  1  0
 15 16  2  0
 16 17  1  0
 17 18  2  0
  9  5  1  0
 18 10  1  0
 18 14  1  0
M  END
>  <inchikey>  (530) 
OHATYSATAWMYKE-UHFFFAOYSA-N

>  <energy_score>  (530) 
-52.117707

>  <subsites>  (530) 
6 - A0486/A/147/1,1 - Active Site

>  <alias>  (530) 
C961-P187

>  <tags>  (530) 
openbind_a71ev2a_c1_scaffolds,BulkDock Fragalysis export,openbind_a71ev2a_c1_knitwork_impure,fragmenstein_placed

>  <distance_score>  (530) 
0.446795

>  <placement_batch>  (530) 
openbind_a71ev2a_c1_knitwork_impure

>  <name>  (530) 
C961-P187

>  <ref_mols>  (530) 
A0239a,A3485a

>  <smiles>  (530) 
O=C(NNC1=NCCS1)[C@H]1CCCn2cnnc21

>  <HIPPO Compound ID>  (530) 
10650

>  <HIPPO Pose ID>  (530) 
445219

>  <ref_pdb>  (530) 
A0586a

$$$$
C1394-P423
     RDKit          3D

 18 18  0  0  0  0  0  0  0  0999 V2000
   12.1112   15.0611   23.9003 C   0  0  0  0  0  0  0  0  0  0  0  0
   12.0884   16.2538   22.5586 S   0  0  0  0  0  0  0  0  0  0  0  0
   11.0148   15.4219   21.3805 C   0  0  0  0  0  0  0  0  0  0  0  0
    9.5188   15.6367   21.6808 C   0  0  0  0  0  0  0  0  0  0  0  0
    8.8239   14.8495   20.5930 C   0  0  0  0  0  0  0  0  0  0  0  0
    9.1433   17.1206   21.6685 C   0  0  0  0  0  0  0  0  0  0  0  0
    9.1240   15.0992   22.9722 N   0  0  0  0  0  0  0  0  0  0  0  0
    8.2236   13.8785   23.3269 C   0  0  0  0  0  0  0  0  0  0  0  0
    7.6022   13.1689   22.6349 O   0  0  0  0  0  0  0  0  0  0  0  0
    8.3925   13.7007   24.8479 C   0  0  0  0  0  0  0  0  0  0  0  0
    9.7130   13.4383   25.1361 F   0  0  0  0  0  0  0  0  0  0  0  0
    8.1429   14.8714   25.5139 F   0  0  0  0  0  0  0  0  0  0  0  0
    7.5553   12.6004   25.4621 C   0  0  1  0  0  0  0  0  0  0  0  0
    6.0625   12.9196   25.4901 C   0  0  0  0  0  0  0  0  0  0  0  0
    5.3367   11.8376   26.2783 C   0  0  0  0  0  0  0  0  0  0  0  0
    5.7077   10.4389   25.7994 C   0  0  0  0  0  0  0  0  0  0  0  0
    7.1377   10.2091   25.6322 N   0  0  0  0  0  0  0  0  0  0  0  0
    7.8100   11.2300   24.8413 C   0  0  0  0  0  0  0  0  0  0  0  0
  1  2  1  0
  2  3  1  0
  3  4  1  0
  4  5  1  0
  4  6  1  0
  4  7  1  0
  7  8  1  0
  8  9  2  0
  8 10  1  0
 10 11  1  0
 10 12  1  0
 13 10  1  6
 13 14  1  0
 14 15  1  0
 15 16  1  0
 16 17  1  0
 17 18  1  0
 18 13  1  0
M  END
>  <inchikey>  (531) 
WLNDFJQVFATSKU-UHFFFAOYSA-N

>  <energy_score>  (531) 
-16.511518

>  <subsites>  (531) 
1 - Active Site,3 - A0541/A/147/1

>  <alias>  (531) 
C1394-P423

>  <tags>  (531) 
openbind_a71ev2a_c1_scaffolds,BulkDock Fragalysis export,openbind_a71ev2a_c1_knitwork_impure,fragmenstein_placed

>  <distance_score>  (531) 
0.980622

>  <placement_batch>  (531) 
openbind_a71ev2a_c1_knitwork_impure

>  <name>  (531) 
C1394-P423

>  <ref_mols>  (531) 
A0541a,A1778a,A4650a

>  <smiles>  (531) 
CSCC(C)(C)NC(=O)C(F)(F)[C@H]1CCCNC1

>  <HIPPO Compound ID>  (531) 
1394

>  <HIPPO Pose ID>  (531) 
445390

>  <ref_pdb>  (531) 
A0586a

$$$$
C7479-P279
     RDKit          3D

 23 24  0  0  0  0  0  0  0  0999 V2000
    3.4694   12.2968   18.2244 C   0  0  0  0  0  0  0  0  0  0  0  0
    3.4200   12.4962   19.7381 C   0  0  0  0  0  0  0  0  0  0  0  0
    2.4377   11.5144   20.3766 C   0  0  0  0  0  0  0  0  0  0  0  0
    3.0767   13.8921   20.0964 C   0  0  0  0  0  0  0  0  0  0  0  0
    2.0874   14.4755   19.3599 O   0  0  0  0  0  0  0  0  0  0  0  0
    1.9965   15.7264   19.8606 C   0  0  0  0  0  0  0  0  0  0  0  0
    2.8189   15.9972   20.8532 N   0  0  0  0  0  0  0  0  0  0  0  0
    3.4906   14.8042   21.0529 C   0  0  0  0  0  0  0  0  0  0  0  0
    4.4519   14.6276   22.1858 C   0  0  0  0  0  0  0  0  0  0  0  0
    5.6598   15.3947   21.9114 N   0  0  0  0  0  0  0  0  0  0  0  0
    7.1303   14.6979   22.3114 S   0  0  0  0  0  0  0  0  0  0  0  0
    6.9761   13.3217   21.8633 O   0  0  0  0  0  0  0  0  0  0  0  0
    8.0519   15.4913   21.5245 O   0  0  0  0  0  0  0  0  0  0  0  0
    7.0757   14.9222   23.8277 N   0  0  0  0  0  0  0  0  0  0  0  0
    8.4401   14.6726   24.4997 S   0  0  2  0  0  0  0  0  0  0  0  0
    8.2490   15.2456   26.1765 C   0  0  0  0  0  0  0  0  0  0  0  0
    9.6884   15.2496   24.0448 O   0  0  0  0  0  0  0  0  0  0  0  0
    8.7628   12.9122   24.7638 C   0  0  0  0  0  0  0  0  0  0  0  0
    9.5427   12.3100   23.5983 C   0  0  0  0  0  0  0  0  0  0  0  0
    9.7204   10.7996   23.6468 C   0  0  0  0  0  0  0  0  0  0  0  0
    8.6206    9.9793   24.2899 C   0  0  0  0  0  0  0  0  0  0  0  0
    7.7791   10.6748   25.3434 C   0  0  0  0  0  0  0  0  0  0  0  0
    7.4936   12.1335   25.0531 C   0  0  0  0  0  0  0  0  0  0  0  0
  1  2  1  0
  2  3  1  0
  2  4  1  0
  4  5  1  0
  5  6  1  0
  6  7  2  0
  7  8  1  0
  8  9  1  0
  9 10  1  0
 10 11  1  0
 11 12  2  0
 11 13  2  0
 11 14  1  0
 14 15  2  0
 15 16  1  1
 15 17  2  0
 15 18  1  0
 18 19  1  0
 19 20  1  0
 20 21  1  0
 21 22  1  0
 22 23  1  0
  8  4  2  0
 23 18  1  0
M  END
>  <inchikey>  (532) 
FDJUGHGTFDESJB-UHFFFAOYSA-N

>  <energy_score>  (532) 
-238.563303

>  <subsites>  (532) 
1 - Active Site

>  <alias>  (532) 
C7479-P279

>  <tags>  (532) 
openbind_a71ev2a_c1_scaffolds,BulkDock Fragalysis export,openbind_a71ev2a_c1_knitwork_impure,fragmenstein_placed

>  <distance_score>  (532) 
0.895841

>  <placement_batch>  (532) 
openbind_a71ev2a_c1_knitwork_impure

>  <name>  (532) 
C7479-P279

>  <ref_mols>  (532) 
A3623a,A4035b

>  <smiles>  (532) 
CC(C)c1ocnc1CNS(=O)(=O)N=[S@](C)(=O)C1CCCCC1

>  <HIPPO Compound ID>  (532) 
7479

>  <HIPPO Pose ID>  (532) 
445609

>  <ref_pdb>  (532) 
A0586a

$$$$
C15051-P343
     RDKit          3D

 14 14  0  0  0  0  0  0  0  0999 V2000
   11.0185   13.3084   24.3148 C   0  0  0  0  0  0  0  0  0  0  0  0
    9.7245   13.3183   23.4939 C   0  0  2  0  0  0  0  0  0  0  0  0
    9.9489   12.5468   22.3331 O   0  0  0  0  0  0  0  0  0  0  0  0
    9.4121   14.7933   23.2113 C   0  0  0  0  0  0  0  0  0  0  0  0
    9.8040   15.6993   23.9608 O   0  0  0  0  0  0  0  0  0  0  0  0
    8.7148   15.0957   21.9163 C   0  0  0  0  0  0  0  0  0  0  0  0
    9.5792   14.9536   20.8683 F   0  0  0  0  0  0  0  0  0  0  0  0
    7.6553   14.2754   21.6704 F   0  0  0  0  0  0  0  0  0  0  0  0
    8.5867   12.6248   24.2456 C   0  0  0  0  0  0  0  0  0  0  0  0
    8.4453   11.2305   24.1849 C   0  0  0  0  0  0  0  0  0  0  0  0
    7.4118   10.6076   24.8767 C   0  0  0  0  0  0  0  0  0  0  0  0
    6.5259   11.3856   25.6040 C   0  0  0  0  0  0  0  0  0  0  0  0
    6.7117   12.7576   25.6018 C   0  0  0  0  0  0  0  0  0  0  0  0
    7.7301   13.3863   24.9685 N   0  0  0  0  0  0  0  0  0  0  0  0
  2  1  1  1
  2  3  1  0
  2  4  1  0
  4  5  2  0
  4  6  1  0
  6  7  1  0
  6  8  1  0
  2  9  1  0
  9 10  2  0
 10 11  1  0
 11 12  2  0
 12 13  1  0
 13 14  2  0
 14  9  1  0
M  END
>  <inchikey>  (533) 
MHXYYYOIIYIRRP-UHFFFAOYSA-N

>  <energy_score>  (533) 
-18.145304

>  <subsites>  (533) 
1 - Active Site

>  <alias>  (533) 
C15051-P343

>  <tags>  (533) 
openbind_a71ev2a_c1_scaffolds,BulkDock Fragalysis export,openbind_a71ev2a_c1_knitwork_impure,fragmenstein_placed

>  <distance_score>  (533) 
0.933016

>  <placement_batch>  (533) 
openbind_a71ev2a_c1_knitwork_impure

>  <name>  (533) 
C15051-P343

>  <ref_mols>  (533) 
A0719a,A4274a

>  <smiles>  (533) 
C[C@](O)(C(=O)C(F)F)c1ccccn1

>  <HIPPO Compound ID>  (533) 
15051

>  <HIPPO Pose ID>  (533) 
445747

>  <ref_pdb>  (533) 
A0586a

$$$$
C15054-P343
     RDKit          3D

 15 15  0  0  0  0  0  0  0  0999 V2000
   10.8842   13.2631   24.3038 C   0  0  0  0  0  0  0  0  0  0  0  0
    9.6230   13.2030   23.4441 C   0  0  2  0  0  0  0  0  0  0  0  0
    9.1346   14.5914   23.3551 N   0  0  0  0  0  0  0  0  0  0  0  0
    8.6632   15.1952   21.8779 S   0  0  0  0  0  0  0  0  0  0  0  0
    7.8278   14.1711   21.2823 O   0  0  0  0  0  0  0  0  0  0  0  0
    8.1019   16.4948   22.1673 O   0  0  0  0  0  0  0  0  0  0  0  0
   10.1778   15.4012   20.9274 C   0  0  0  0  0  0  0  0  0  0  0  0
   11.2093   15.8117   21.8676 C   0  0  0  0  0  0  0  0  0  0  0  0
   12.0368   16.0493   22.6475 N   0  0  0  0  0  0  0  0  0  0  0  0
    8.5884   12.3044   24.1040 C   0  0  0  0  0  0  0  0  0  0  0  0
    8.5944   10.9311   23.8825 C   0  0  0  0  0  0  0  0  0  0  0  0
    7.6637   10.1420   24.5505 C   0  0  0  0  0  0  0  0  0  0  0  0
    6.7386   10.7397   25.3971 C   0  0  0  0  0  0  0  0  0  0  0  0
    6.7789   12.1149   25.5403 C   0  0  0  0  0  0  0  0  0  0  0  0
    7.6995   12.9026   24.9452 N   0  0  0  0  0  0  0  0  0  0  0  0
  2  1  1  1
  2  3  1  0
  3  4  1  0
  4  5  2  0
  4  6  2  0
  4  7  1  0
  7  8  1  0
  8  9  3  0
  2 10  1  0
 10 11  2  0
 11 12  1  0
 12 13  2  0
 13 14  1  0
 14 15  2  0
 15 10  1  0
M  END
>  <inchikey>  (534) 
QXBXKJNMGXBAQW-UHFFFAOYSA-N

>  <energy_score>  (534) 
-28.938559

>  <subsites>  (534) 
1 - Active Site

>  <alias>  (534) 
C15054-P343

>  <tags>  (534) 
openbind_a71ev2a_c1_scaffolds,BulkDock Fragalysis export,openbind_a71ev2a_c1_knitwork_impure,fragmenstein_placed

>  <distance_score>  (534) 
0.973279

>  <placement_batch>  (534) 
openbind_a71ev2a_c1_knitwork_impure

>  <name>  (534) 
C15054-P343

>  <ref_mols>  (534) 
A0719a,A4274a

>  <smiles>  (534) 
C[C@H](NS(=O)(=O)CC#N)c1ccccn1

>  <HIPPO Compound ID>  (534) 
13878

>  <HIPPO Pose ID>  (534) 
445749

>  <ref_pdb>  (534) 
A0586a

$$$$
C8132-P343
     RDKit          3D

 15 15  0  0  0  0  0  0  0  0999 V2000
    8.1256   14.2754   21.3667 O   0  0  0  0  0  0  0  0  0  0  0  0
    9.1171   15.1974   21.9051 S   0  0  0  0  0  0  0  0  0  0  0  0
    8.7066   16.5544   22.2062 O   0  0  0  0  0  0  0  0  0  0  0  0
    9.5055   14.5467   23.4439 N   0  0  0  0  0  0  0  0  0  0  0  0
    9.7058   13.0717   23.4721 C   0  0  0  0  0  0  0  0  0  0  0  0
    8.6483   12.4620   24.4224 C   0  0  2  0  0  0  0  0  0  0  0  0
    8.3469   11.0153   24.0616 C   0  0  0  0  0  0  0  0  0  0  0  0
    7.2348   10.4071   24.9041 C   0  0  0  0  0  0  0  0  0  0  0  0
    6.5360   11.3788   25.8408 C   0  0  0  0  0  0  0  0  0  0  0  0
    6.3845   12.8042   25.3256 C   0  0  0  0  0  0  0  0  0  0  0  0
    7.4302   13.2863   24.4322 N   0  0  0  0  0  0  0  0  0  0  0  0
   10.7814   15.1634   21.0087 C   0  0  0  0  0  0  0  0  0  0  0  0
   11.5998   16.1571   21.4581 F   0  0  0  0  0  0  0  0  0  0  0  0
   10.6567   15.2936   19.6654 F   0  0  0  0  0  0  0  0  0  0  0  0
   11.4514   14.0000   21.2556 F   0  0  0  0  0  0  0  0  0  0  0  0
  1  2  2  0
  2  3  2  0
  2  4  1  0
  4  5  1  0
  6  5  1  6
  6  7  1  0
  7  8  1  0
  8  9  1  0
  9 10  1  0
 10 11  1  0
  2 12  1  0
 12 13  1  0
 12 14  1  0
 12 15  1  0
 11  6  1  0
M  END
>  <inchikey>  (535) 
OHYSAQUMFUOGOB-UHFFFAOYSA-N

>  <energy_score>  (535) 
-35.54911

>  <subsites>  (535) 
1 - Active Site

>  <alias>  (535) 
C8132-P343

>  <tags>  (535) 
openbind_a71ev2a_c1_scaffolds,BulkDock Fragalysis export,openbind_a71ev2a_c1_knitwork_impure,fragmenstein_placed

>  <distance_score>  (535) 
0.945881

>  <placement_batch>  (535) 
openbind_a71ev2a_c1_knitwork_impure

>  <name>  (535) 
C8132-P343

>  <ref_mols>  (535) 
A0719a,A4274a

>  <smiles>  (535) 
O=S(=O)(NC[C@@H]1CCCCN1)C(F)(F)F

>  <HIPPO Compound ID>  (535) 
8132

>  <HIPPO Pose ID>  (535) 
445760

>  <ref_pdb>  (535) 
A0586a

$$$$
C8137-P343
     RDKit          3D

 18 18  0  0  0  0  0  0  0  0999 V2000
   11.2850   15.4214   23.3443 C   0  0  0  0  0  0  0  0  0  0  0  0
   11.5875   15.2013   21.8772 C   0  0  0  0  0  0  0  0  0  0  0  0
   10.5327   15.7147   20.8985 C   0  0  0  0  0  0  0  0  0  0  0  0
    9.1601   15.0415   20.9857 C   0  0  0  0  0  0  0  0  0  0  0  0
    8.2449   15.5484   22.0530 N   0  0  0  0  0  0  0  0  0  0  0  0
    8.1283   17.0189   22.0837 C   0  0  0  0  0  0  0  0  0  0  0  0
    6.7412   14.7792   22.1207 S   0  0  0  0  0  0  0  0  0  0  0  0
    6.8919   13.4043   21.7020 O   0  0  0  0  0  0  0  0  0  0  0  0
    5.6990   15.5845   21.5366 O   0  0  0  0  0  0  0  0  0  0  0  0
    6.4418   14.8036   23.7719 N   0  0  0  0  0  0  0  0  0  0  0  0
    7.4059   14.1910   24.7099 C   0  0  1  0  0  0  0  0  0  0  0  0
    7.0120   14.6478   26.1144 C   0  0  0  0  0  0  0  0  0  0  0  0
    7.4461   12.6668   24.4866 C   0  0  0  0  0  0  0  0  0  0  0  0
    6.8332   11.7700   25.5584 C   0  0  0  0  0  0  0  0  0  0  0  0
    6.9805   10.3012   25.1799 C   0  0  0  0  0  0  0  0  0  0  0  0
    8.3298    9.9383   24.8081 N   0  0  0  0  0  0  0  0  0  0  0  0
    8.8962   10.7599   23.7547 C   0  0  0  0  0  0  0  0  0  0  0  0
    8.8671   12.2325   24.1166 C   0  0  0  0  0  0  0  0  0  0  0  0
  1  2  1  0
  2  3  1  0
  3  4  1  0
  4  5  1  0
  5  6  1  0
  5  7  1  0
  7  8  2  0
  7  9  2  0
  7 10  1  0
 10 11  1  0
 11 12  1  1
 11 13  1  0
 13 14  1  0
 14 15  1  0
 15 16  1  0
 16 17  1  0
 17 18  1  0
 18 13  1  0
M  END
>  <inchikey>  (536) 
VQRXHIVVUXYAFH-UHFFFAOYSA-N

>  <energy_score>  (536) 
-54.887817

>  <subsites>  (536) 
1 - Active Site

>  <alias>  (536) 
C8137-P343

>  <tags>  (536) 
openbind_a71ev2a_c1_scaffolds,BulkDock Fragalysis export,openbind_a71ev2a_c1_knitwork_impure,fragmenstein_placed

>  <distance_score>  (536) 
0.973684

>  <placement_batch>  (536) 
openbind_a71ev2a_c1_knitwork_impure

>  <name>  (536) 
C8137-P343

>  <ref_mols>  (536) 
A0719a,A4274a

>  <smiles>  (536) 
CCCCN(C)S(=O)(=O)N[C@@H](C)C1CCNCC1

>  <HIPPO Compound ID>  (536) 
6280

>  <HIPPO Pose ID>  (536) 
445763

>  <ref_pdb>  (536) 
A0586a

$$$$
C9179-P22
     RDKit          3D

 15 16  0  0  0  0  0  0  0  0999 V2000
   12.9395   16.7547   20.3534 C   0  0  0  0  0  0  0  0  0  0  0  0
   12.3923   15.9082   21.3788 N   0  0  0  0  0  0  0  0  0  0  0  0
   13.2231   15.2946   22.3721 C   0  0  0  0  0  0  0  0  0  0  0  0
   12.2750   14.3203   23.0262 C   0  0  0  0  0  0  0  0  0  0  0  0
   10.9713   15.1161   23.0794 C   0  0  2  0  0  0  0  0  0  0  0  0
    9.7314   14.2964   23.1387 N   0  0  0  0  0  0  0  0  0  0  0  0
    9.6234   13.3456   24.5375 S   0  0  0  0  0  0  0  0  0  0  0  0
   10.7972   12.5009   24.5020 O   0  0  0  0  0  0  0  0  0  0  0  0
    9.4146   14.2866   25.6161 O   0  0  0  0  0  0  0  0  0  0  0  0
    8.2072   12.2884   24.3764 C   0  0  0  0  0  0  0  0  0  0  0  0
    7.3813   12.0974   25.6500 C   0  0  0  0  0  0  0  0  0  0  0  0
    7.5644   10.6448   25.5695 N   0  0  0  0  0  0  0  0  0  0  0  0
    8.5457   10.7917   24.4938 C   0  0  0  0  0  0  0  0  0  0  0  0
   11.0605   15.9104   21.7796 C   0  0  0  0  0  0  0  0  0  0  0  0
   10.1419   16.4885   21.2183 O   0  0  0  0  0  0  0  0  0  0  0  0
  1  2  1  0
  2  3  1  0
  3  4  1  0
  4  5  1  0
  5  6  1  6
  6  7  1  0
  7  8  2  0
  7  9  2  0
  7 10  1  0
 10 11  1  0
 11 12  1  0
 12 13  1  0
  5 14  1  0
 14 15  2  0
 14  2  1  0
 13 10  1  0
M  END
>  <inchikey>  (537) 
TXZMGEIPDXEFES-UHFFFAOYSA-N

>  <energy_score>  (537) 
-28.744719

>  <subsites>  (537) 
1 - Active Site

>  <alias>  (537) 
C9179-P22

>  <tags>  (537) 
openbind_a71ev2a_c1_scaffolds,BulkDock Fragalysis export,openbind_a71ev2a_c1_knitwork_impure,fragmenstein_placed

>  <distance_score>  (537) 
0.956774

>  <placement_batch>  (537) 
openbind_a71ev2a_c1_knitwork_impure

>  <name>  (537) 
C9179-P22

>  <ref_mols>  (537) 
A0528a,A0875a

>  <smiles>  (537) 
CN1CC[C@H](NS(=O)(=O)C2CNC2)C1=O

>  <HIPPO Compound ID>  (537) 
9179

>  <HIPPO Pose ID>  (537) 
445901

>  <ref_pdb>  (537) 
A0586a

$$$$
C961-P228
     RDKit          3D

 18 20  0  0  0  0  0  0  0  0999 V2000
   25.5537    9.9076   -1.1525 O   0  0  0  0  0  0  0  0  0  0  0  0
   24.8825   10.8638   -1.2188 C   0  0  0  0  0  0  0  0  0  0  0  0
   23.6397   11.1624   -2.1038 N   0  0  0  0  0  0  0  0  0  0  0  0
   23.0583   10.4216   -3.1018 N   0  0  0  0  0  0  0  0  0  0  0  0
   23.1437   10.9690   -4.3529 C   0  0  0  0  0  0  0  0  0  0  0  0
   23.3156   12.2159   -4.6542 N   0  0  0  0  0  0  0  0  0  0  0  0
   23.2908   12.3793   -6.1201 C   0  0  0  0  0  0  0  0  0  0  0  0
   23.7119   11.0845   -6.7918 C   0  0  0  0  0  0  0  0  0  0  0  0
   23.0360    9.8380   -5.6847 S   0  0  0  0  0  0  0  0  0  0  0  0
   25.2236   12.1370   -0.4047 C   0  0  2  0  0  0  0  0  0  0  0  0
   26.3712   11.8237    0.5855 C   0  0  0  0  0  0  0  0  0  0  0  0
   26.5083   12.8682    1.6915 C   0  0  0  0  0  0  0  0  0  0  0  0
   25.2163   12.9758    2.4946 C   0  0  0  0  0  0  0  0  0  0  0  0
   24.0750   13.0976    1.6207 N   0  0  0  0  0  0  0  0  0  0  0  0
   22.8807   13.6793    1.8900 C   0  0  0  0  0  0  0  0  0  0  0  0
   22.1363   13.6540    0.8076 N   0  0  0  0  0  0  0  0  0  0  0  0
   22.8711   13.0570   -0.1943 N   0  0  0  0  0  0  0  0  0  0  0  0
   24.0372   12.7040    0.3098 C   0  0  0  0  0  0  0  0  0  0  0  0
  1  2  2  0
  2  3  1  0
  3  4  1  0
  4  5  1  0
  5  6  2  0
  6  7  1  0
  7  8  1  0
  8  9  1  0
 10  2  1  1
 10 11  1  0
 11 12  1  0
 12 13  1  0
 13 14  1  0
 14 15  1  0
 15 16  2  0
 16 17  1  0
 17 18  2  0
  9  5  1  0
 18 10  1  0
 18 14  1  0
M  END
>  <inchikey>  (538) 
CLKVTKUYRZLTQV-UHFFFAOYSA-N

>  <energy_score>  (538) 
-31.772725

>  <subsites>  (538) 
6 - A0486/A/147/1,1 - Active Site

>  <alias>  (538) 
C961-P228

>  <tags>  (538) 
openbind_a71ev2a_c1_scaffolds,BulkDock Fragalysis export,openbind_a71ev2a_c1_knitwork_impure,fragmenstein_placed

>  <distance_score>  (538) 
0.549593

>  <placement_batch>  (538) 
openbind_a71ev2a_c1_knitwork_impure

>  <name>  (538) 
C961-P228

>  <ref_mols>  (538) 
A0239a,A3868a

>  <smiles>  (538) 
O=C(NNC1=NCCS1)[C@@H]1CCCn2cnnc21

>  <HIPPO Compound ID>  (538) 
961

>  <HIPPO Pose ID>  (538) 
445913

>  <ref_pdb>  (538) 
A0586a

$$$$
C1002-P228
     RDKit          3D

 20 22  0  0  0  0  0  0  0  0999 V2000
   30.4001    8.1988    1.0715 C   0  0  0  0  0  0  0  0  0  0  0  0
   30.1681    9.3147    1.4514 C   0  0  0  0  0  0  0  0  0  0  0  0
   29.8841   10.6889    1.8903 C   0  0  2  0  0  0  0  0  0  0  0  0
   28.4863   10.9621    1.6721 N   0  0  0  0  0  0  0  0  0  0  0  0
   27.5731   12.0669    2.2616 C   0  0  0  0  0  0  0  0  0  0  0  0
   27.7933   12.8764    3.0714 O   0  0  0  0  0  0  0  0  0  0  0  0
   26.2150   11.9426    1.5591 C   0  0  2  0  0  0  0  0  0  0  0  0
   26.3178   12.2764    0.0581 C   0  0  0  0  0  0  0  0  0  0  0  0
   24.9722   12.0567   -0.6342 C   0  0  0  0  0  0  0  0  0  0  0  0
   23.8806   12.7218    0.1107 C   0  0  0  0  0  0  0  0  0  0  0  0
   22.6992   13.0888   -0.3303 N   0  0  0  0  0  0  0  0  0  0  0  0
   22.0358   13.6953    0.7110 N   0  0  0  0  0  0  0  0  0  0  0  0
   22.8250   13.6817    1.7670 C   0  0  0  0  0  0  0  0  0  0  0  0
   22.5286   14.2634    3.0895 C   0  0  0  0  0  0  0  0  0  0  0  0
   23.9912   13.0533    1.4333 N   0  0  0  0  0  0  0  0  0  0  0  0
   25.1870   12.8736    2.2317 C   0  0  0  0  0  0  0  0  0  0  0  0
   30.6577   11.6954    1.0443 C   0  0  0  0  0  0  0  0  0  0  0  0
   30.6936   13.1735    1.5329 C   0  0  0  0  0  0  0  0  0  0  0  0
   32.1457   13.2330    1.0199 C   0  0  0  0  0  0  0  0  0  0  0  0
   32.2036   11.7074    1.2314 C   0  0  0  0  0  0  0  0  0  0  0  0
  1  2  3  0
  3  2  1  6
  3  4  1  0
  4  5  1  0
  5  6  2  0
  7  5  1  1
  7  8  1  0
  8  9  1  0
  9 10  1  0
 10 11  2  0
 11 12  1  0
 12 13  2  0
 13 14  1  0
 13 15  1  0
 15 16  1  0
  3 17  1  0
 17 18  1  0
 18 19  1  0
 19 20  1  0
 16  7  1  0
 20 17  1  0
 15 10  1  0
M  END
>  <inchikey>  (539) 
XZXXEYWXKJBZSC-UHFFFAOYSA-N

>  <energy_score>  (539) 
-25.006146

>  <subsites>  (539) 
6 - A0486/A/147/1,1 - Active Site

>  <alias>  (539) 
C1002-P228

>  <tags>  (539) 
openbind_a71ev2a_c1_scaffolds,BulkDock Fragalysis export,openbind_a71ev2a_c1_knitwork_impure,fragmenstein_placed

>  <distance_score>  (539) 
0.4253

>  <placement_batch>  (539) 
openbind_a71ev2a_c1_knitwork_impure

>  <name>  (539) 
C1002-P228

>  <ref_mols>  (539) 
A0239a,A3868a

>  <smiles>  (539) 
C#C[C@H](NC(=O)[C@@H]1CCc2nnc(C)n2C1)C1CCC1

>  <HIPPO Compound ID>  (539) 
1002

>  <HIPPO Pose ID>  (539) 
445915

>  <ref_pdb>  (539) 
A0586a

$$$$
C1352-P196
     RDKit          3D

 17 18  0  0  0  0  0  0  0  0999 V2000
   10.9420   15.5413   19.2004 C   0  0  0  0  0  0  0  0  0  0  0  0
   10.8030   15.4978   20.6655 C   0  0  0  0  0  0  0  0  0  0  0  0
    9.8640   15.9785   21.5418 C   0  0  0  0  0  0  0  0  0  0  0  0
   10.3004   15.5160   22.8035 C   0  0  0  0  0  0  0  0  0  0  0  0
    9.6440   15.6655   24.1258 C   0  0  0  0  0  0  0  0  0  0  0  0
    8.1424   15.3932   24.1054 C   0  0  0  0  0  0  0  0  0  0  0  0
    7.7628   14.4970   25.2624 C   0  0  0  0  0  0  0  0  0  0  0  0
    8.2004   14.6438   26.4002 O   0  0  0  0  0  0  0  0  0  0  0  0
    6.8771   13.5207   24.9035 N   0  0  0  0  0  0  0  0  0  0  0  0
    5.5072   13.8324   25.0039 O   0  0  0  0  0  0  0  0  0  0  0  0
    7.1893   12.1918   24.4277 C   0  0  0  0  0  0  0  0  0  0  0  0
    8.6552   11.8677   24.1509 C   0  0  0  0  0  0  0  0  0  0  0  0
    8.6371   10.3512   23.9744 C   0  0  0  0  0  0  0  0  0  0  0  0
    7.4494    9.8516   24.7941 C   0  0  0  0  0  0  0  0  0  0  0  0
    6.7807   11.0840   25.3813 C   0  0  0  0  0  0  0  0  0  0  0  0
   11.4584   14.8499   22.7084 N   0  0  0  0  0  0  0  0  0  0  0  0
   11.7741   14.8470   21.3594 O   0  0  0  0  0  0  0  0  0  0  0  0
  1  2  1  0
  2  3  2  0
  3  4  1  0
  4  5  1  0
  5  6  1  0
  6  7  1  0
  7  8  2  0
  7  9  1  0
  9 10  1  0
  9 11  1  0
 11 12  1  0
 12 13  1  0
 13 14  1  0
 14 15  1  0
  4 16  2  0
 16 17  1  0
 17  2  1  0
 15 11  1  0
M  END
>  <inchikey>  (540) 
KMXPQZZEYXRUBR-UHFFFAOYSA-N

>  <energy_score>  (540) 
-1.101926

>  <subsites>  (540) 
1 - Active Site

>  <alias>  (540) 
C1352-P196

>  <tags>  (540) 
openbind_a71ev2a_c1_scaffolds,BulkDock Fragalysis export,openbind_a71ev2a_c1_knitwork_impure,fragmenstein_placed

>  <distance_score>  (540) 
0.970446

>  <placement_batch>  (540) 
openbind_a71ev2a_c1_knitwork_impure

>  <name>  (540) 
C1352-P196

>  <ref_mols>  (540) 
A1080a,A3616a

>  <smiles>  (540) 
Cc1cc(CCC(=O)N(O)C2CCCC2)no1

>  <HIPPO Compound ID>  (540) 
3919

>  <HIPPO Pose ID>  (540) 
445961

>  <ref_pdb>  (540) 
A0586a

$$$$
C7067-P174
     RDKit          3D

 18 18  0  0  0  0  0  0  0  0999 V2000
    9.8743   16.1169   21.1089 C   0  0  0  0  0  0  0  0  0  0  0  0
   10.7839   14.9018   21.0544 C   0  0  1  0  0  0  0  0  0  0  0  0
   12.2635   15.1607   21.3752 C   0  0  0  0  0  0  0  0  0  0  0  0
   13.1068   16.1387   20.5420 C   0  0  0  0  0  0  0  0  0  0  0  0
   13.0367   17.5858   21.0170 C   0  0  0  0  0  0  0  0  0  0  0  0
   13.9967   18.4982   20.2558 C   0  0  0  0  0  0  0  0  0  0  0  0
   13.8312   18.4062   18.8121 N   0  0  0  0  0  0  0  0  0  0  0  0
   13.9389   17.0102   18.3630 C   0  0  0  0  0  0  0  0  0  0  0  0
   12.9044   16.0943   19.0352 C   0  0  0  0  0  0  0  0  0  0  0  0
   10.3245   13.8781   21.9886 N   0  0  0  0  0  0  0  0  0  0  0  0
    9.8441   13.9989   23.4614 C   0  0  0  0  0  0  0  0  0  0  0  0
    9.6697   14.9444   24.1257 O   0  0  0  0  0  0  0  0  0  0  0  0
    9.7020   12.5847   24.0296 C   0  0  0  0  0  0  0  0  0  0  0  0
    8.2569   12.0468   24.1706 C   0  0  2  0  0  0  0  0  0  0  0  0
    7.4157   12.9649   25.0682 C   0  0  0  0  0  0  0  0  0  0  0  0
    8.2943   10.5918   24.7279 C   0  0  0  0  0  0  0  0  0  0  0  0
    8.9096    9.6035   23.7328 C   0  0  0  0  0  0  0  0  0  0  0  0
    6.9630   10.0342   25.2203 C   0  0  0  0  0  0  0  0  0  0  0  0
  2  1  1  1
  2  3  1  0
  3  4  1  0
  4  5  1  0
  5  6  1  0
  6  7  1  0
  7  8  1  0
  8  9  1  0
  2 10  1  0
 10 11  1  0
 11 12  2  0
 11 13  1  0
 13 14  1  0
 14 15  1  1
 14 16  1  0
 16 17  1  0
 16 18  1  0
  9  4  1  0
M  END
>  <inchikey>  (541) 
IMBLIAFPKKGXAI-UHFFFAOYSA-N

>  <energy_score>  (541) 
-14.535519

>  <subsites>  (541) 
1 - Active Site

>  <alias>  (541) 
C7067-P174

>  <tags>  (541) 
openbind_a71ev2a_c1_scaffolds,BulkDock Fragalysis export,openbind_a71ev2a_c1_knitwork_impure,fragmenstein_placed

>  <distance_score>  (541) 
0.984605

>  <placement_batch>  (541) 
openbind_a71ev2a_c1_knitwork_impure

>  <name>  (541) 
C7067-P174

>  <ref_mols>  (541) 
A4509a,A3371a

>  <smiles>  (541) 
CC(C)[C@@H](C)CC(=O)N[C@@H](C)CC1CCNCC1

>  <HIPPO Compound ID>  (541) 
4175

>  <HIPPO Pose ID>  (541) 
446472

>  <ref_pdb>  (541) 
A3849a

$$$$
C4728-P317
     RDKit          3D

  9  9  0  0  0  0  0  0  0  0999 V2000
    7.0342   12.3110   26.5294 O   0  0  0  0  0  0  0  0  0  0  0  0
    7.6041   12.3669   25.4419 C   0  0  0  0  0  0  0  0  0  0  0  0
    8.6670   13.3873   25.1028 C   0  0  0  0  0  0  0  0  0  0  0  0
    8.6613   13.6977   23.6044 C   0  0  0  0  0  0  0  0  0  0  0  0
    9.4954   14.8450   23.2585 N   0  0  0  0  0  0  0  0  0  0  0  0
   10.9242   14.7059   23.5843 C   0  0  0  0  0  0  0  0  0  0  0  0
   11.6368   15.3816   22.4690 C   0  0  0  0  0  0  0  0  0  0  0  0
   10.7896   15.6455   21.4722 C   0  0  0  0  0  0  0  0  0  0  0  0
    9.4154   15.1985   21.8235 C   0  0  0  0  0  0  0  0  0  0  0  0
  1  2  2  0
  2  3  1  0
  3  4  1  0
  4  5  1  0
  5  6  1  0
  6  7  1  0
  7  8  2  0
  8  9  1  0
  9  5  1  0
M  END
>  <inchikey>  (542) 
ATECCOVAGPARCV-UHFFFAOYSA-N

>  <energy_score>  (542) 
-24.372667

>  <subsites>  (542) 
1 - Active Site

>  <alias>  (542) 
C4728-P317

>  <tags>  (542) 
openbind_a71ev2a_c1_scaffolds,BulkDock Fragalysis export,openbind_a71ev2a_c1_knitwork_impure,fragmenstein_placed

>  <distance_score>  (542) 
0.921355

>  <placement_batch>  (542) 
openbind_a71ev2a_c1_knitwork_impure

>  <name>  (542) 
C4728-P317

>  <ref_mols>  (542) 
A1775a,A4343b

>  <smiles>  (542) 
O=CCCN1CC=CC1

>  <HIPPO Compound ID>  (542) 
35792

>  <HIPPO Pose ID>  (542) 
447866

>  <ref_pdb>  (542) 
A3849a

$$$$
C36269-P36
     RDKit          3D

 23 25  0  0  0  0  0  0  0  0999 V2000
   25.1752   12.1053    2.0620 C   0  0  0  0  0  0  0  0  0  0  0  0
   24.0433   12.8629    1.6532 O   0  0  0  0  0  0  0  0  0  0  0  0
   24.0498   14.1416    2.2798 C   0  0  0  0  0  0  0  0  0  0  0  0
   22.9862   14.9979    1.6096 C   0  0  0  0  0  0  0  0  0  0  0  0
   23.0833   16.4753    2.0051 C   0  0  1  0  0  0  0  0  0  0  0  0
   24.3051   17.1818    1.4170 C   0  0  0  0  0  0  0  0  0  0  0  0
   21.7693   17.2098    1.6799 C   0  0  0  0  0  0  0  0  0  0  0  0
   21.0635   17.6040    2.5234 O   0  0  0  0  0  0  0  0  0  0  0  0
   21.6073   17.2427    0.1349 N   0  0  0  0  0  0  0  0  0  0  0  0
   20.5784   17.8585   -0.6968 C   0  0  0  0  0  0  0  0  0  0  0  0
   21.0599   18.9332   -1.6350 C   0  0  0  0  0  0  0  0  0  0  0  0
   20.0275   18.5356   -2.6697 N   0  0  0  0  0  0  0  0  0  0  0  0
   18.5475   18.8458   -2.7579 C   0  0  0  0  0  0  0  0  0  0  0  0
   17.8391   19.4041   -1.9988 O   0  0  0  0  0  0  0  0  0  0  0  0
   18.0162   18.3240   -4.0418 C   0  0  0  0  0  0  0  0  0  0  0  0
   18.7412   17.7961   -5.1134 C   0  0  0  0  0  0  0  0  0  0  0  0
   17.8023   17.4831   -6.0211 N   0  0  0  0  0  0  0  0  0  0  0  0
   16.5727   17.7871   -5.5348 C   0  0  0  0  0  0  0  0  0  0  0  0
   16.6446   18.3008   -4.3376 N   0  0  0  0  0  0  0  0  0  0  0  0
   15.5109   17.4504   -6.5011 C   0  0  0  0  0  0  0  0  0  0  0  0
   16.2778   16.5435   -7.4979 C   0  0  0  0  0  0  0  0  0  0  0  0
   17.7671   16.9094   -7.3478 C   0  0  0  0  0  0  0  0  0  0  0  0
   20.2823   17.1505   -1.9899 C   0  0  0  0  0  0  0  0  0  0  0  0
  1  2  1  0
  2  3  1  0
  3  4  1  0
  4  5  1  0
  5  6  1  6
  5  7  1  0
  7  8  2  0
  7  9  1  0
  9 10  1  0
 10 11  1  0
 11 12  1  0
 12 13  1  0
 13 14  2  0
 13 15  1  0
 15 16  2  0
 16 17  1  0
 17 18  1  0
 18 19  2  0
 18 20  1  0
 20 21  1  0
 21 22  1  0
 12 23  1  0
 23 10  1  0
 19 15  1  0
 22 17  1  0
M  END
>  <inchikey>  (543) 
PYOGJXOXCOUBHM-UHFFFAOYSA-N

>  <energy_score>  (543) 
-6.414536

>  <subsites>  (543) 
6 - A0486/A/147/1,1 - Active Site

>  <alias>  (543) 
C36269-P36

>  <tags>  (543) 
openbind_a71ev2a_c1_scaffolds,BulkDock Fragalysis export,openbind_a71ev2a_c1_knitwork_impure,fragmenstein_placed

>  <distance_score>  (543) 
0.835787

>  <placement_batch>  (543) 
openbind_a71ev2a_c1_knitwork_impure

>  <name>  (543) 
C36269-P36

>  <ref_mols>  (543) 
A0309a,A4715a

>  <smiles>  (543) 
COCC[C@@H](C)C(=O)NC1CN(C(=O)c2cn3c(n2)CCC3)C1

>  <HIPPO Compound ID>  (543) 
22039

>  <HIPPO Pose ID>  (543) 
448218

>  <ref_pdb>  (543) 
A3849a

$$$$
C9375-P489
     RDKit          3D

 14 14  0  0  0  0  0  0  0  0999 V2000
   10.7483   15.4050   19.5066 C   0  0  0  0  0  0  0  0  0  0  0  0
   10.5300   15.7125   20.9806 C   0  0  2  0  0  0  0  0  0  0  0  0
   11.7984   15.8103   21.7008 C   0  0  0  0  0  0  0  0  0  0  0  0
   12.6319   15.8268   22.5050 N   0  0  0  0  0  0  0  0  0  0  0  0
    9.6094   14.6840   21.6769 C   0  0  0  0  0  0  0  0  0  0  0  0
   10.0284   14.3868   23.0663 N   0  0  0  0  0  0  0  0  0  0  0  0
    8.9239   14.0076   24.2234 S   0  0  0  0  0  0  0  0  0  0  0  0
    7.8121   14.9121   24.1195 O   0  0  0  0  0  0  0  0  0  0  0  0
    9.6705   13.8716   25.4513 O   0  0  0  0  0  0  0  0  0  0  0  0
    8.3943   12.4930   23.7506 N   0  0  0  0  0  0  0  0  0  0  0  0
    7.3995   11.9215   24.6884 C   0  0  0  0  0  0  0  0  0  0  0  0
    7.6935   10.4392   24.7941 C   0  0  0  0  0  0  0  0  0  0  0  0
    8.7882   10.1435   23.7945 C   0  0  0  0  0  0  0  0  0  0  0  0
    9.4289   11.4808   23.4850 C   0  0  0  0  0  0  0  0  0  0  0  0
  2  1  1  6
  2  3  1  0
  3  4  3  0
  2  5  1  0
  5  6  1  0
  6  7  1  0
  7  8  2  0
  7  9  2  0
  7 10  1  0
 10 11  1  0
 11 12  1  0
 12 13  1  0
 13 14  1  0
 14 10  1  0
M  END
>  <inchikey>  (544) 
WYAUXRZNPDFNGB-UHFFFAOYSA-N

>  <energy_score>  (544) 
-41.613884

>  <subsites>  (544) 
1 - Active Site

>  <alias>  (544) 
C9375-P489

>  <tags>  (544) 
openbind_a71ev2a_c1_scaffolds,BulkDock Fragalysis export,openbind_a71ev2a_c1_knitwork_impure,fragmenstein_placed

>  <distance_score>  (544) 
0.988776

>  <placement_batch>  (544) 
openbind_a71ev2a_c1_knitwork_impure

>  <name>  (544) 
C9375-P489

>  <ref_mols>  (544) 
A4855a,A0719a

>  <smiles>  (544) 
C[C@H](C#N)CNS(=O)(=O)N1CCCC1

>  <HIPPO Compound ID>  (544) 
9393

>  <HIPPO Pose ID>  (544) 
448413

>  <ref_pdb>  (544) 
A3849a

$$$$
C7646-P138
     RDKit          3D

 13 14  0  0  0  0  0  0  0  0999 V2000
    5.6530   15.8992   21.9314 N   0  0  0  0  0  0  0  0  0  0  0  0
    6.8626   14.8889   22.5268 S   0  0  0  0  0  0  0  0  0  0  0  0
    8.0923   15.5803   22.2214 O   0  0  0  0  0  0  0  0  0  0  0  0
    6.5517   13.5952   21.9635 O   0  0  0  0  0  0  0  0  0  0  0  0
    6.4998   15.0038   24.2789 C   0  0  0  0  0  0  0  0  0  0  0  0
    7.7128   14.7387   25.1595 C   0  0  0  0  0  0  0  0  0  0  0  0
    7.8583   13.2753   25.5603 C   0  0  0  0  0  0  0  0  0  0  0  0
    7.7766   12.3603   24.4392 N   0  0  0  0  0  0  0  0  0  0  0  0
    7.5744   10.9758   24.8825 C   0  0  0  0  0  0  0  0  0  0  0  0
    8.8227   10.2593   24.5926 C   0  0  1  0  0  0  0  0  0  0  0  0
    9.3685    9.8279   23.2733 C   0  0  0  0  0  0  0  0  0  0  0  0
    9.7104   11.1775   23.8408 C   0  0  1  0  0  0  0  0  0  0  0  0
    8.9806   12.4308   23.5957 C   0  0  0  0  0  0  0  0  0  0  0  0
  1  2  1  0
  2  3  2  0
  2  4  2  0
  2  5  1  0
  5  6  1  0
  6  7  1  0
  7  8  1  0
  8  9  1  0
 10  9  1  6
 10 11  1  0
 12 11  1  6
 12 13  1  0
 13  8  1  0
 12 10  1  0
M  END
>  <inchikey>  (545) 
VNNGVJKCEHEFDX-UHFFFAOYSA-N

>  <energy_score>  (545) 
-30.326052

>  <subsites>  (545) 
1 - Active Site

>  <alias>  (545) 
C7646-P138

>  <tags>  (545) 
openbind_a71ev2a_c1_scaffolds,BulkDock Fragalysis export,openbind_a71ev2a_c1_knitwork_impure,fragmenstein_placed

>  <distance_score>  (545) 
0.93154

>  <placement_batch>  (545) 
openbind_a71ev2a_c1_knitwork_impure

>  <name>  (545) 
C7646-P138

>  <ref_mols>  (545) 
A3054a,A0719a

>  <smiles>  (545) 
NS(=O)(=O)CCCN1C[C@H]2C[C@H]2C1

>  <HIPPO Compound ID>  (545) 
28016

>  <HIPPO Pose ID>  (545) 
448512

>  <ref_pdb>  (545) 
A3849a

$$$$
C7649-P138
     RDKit          3D

 14 15  0  0  0  0  0  0  0  0999 V2000
    5.8293   16.1089   22.0504 N   0  0  0  0  0  0  0  0  0  0  0  0
    6.9026   15.0021   22.7113 S   0  0  0  0  0  0  0  0  0  0  0  0
    8.2099   15.5820   22.5277 O   0  0  0  0  0  0  0  0  0  0  0  0
    6.5338   13.7401   22.1079 O   0  0  0  0  0  0  0  0  0  0  0  0
    6.4152   15.0984   24.4327 C   0  0  0  0  0  0  0  0  0  0  0  0
    7.3331   14.3585   25.4004 C   0  0  0  0  0  0  0  0  0  0  0  0
    7.1567   12.8365   25.3161 C   0  0  0  0  0  0  0  0  0  0  0  0
    8.3741   12.0941   25.0268 N   0  0  0  0  0  0  0  0  0  0  0  0
    9.0215   12.5844   23.8082 C   0  0  0  0  0  0  0  0  0  0  0  0
    9.9766   11.4837   23.4898 C   0  0  0  0  0  0  0  0  0  0  0  0
    9.2066   10.2530   23.8402 C   0  0  0  0  0  0  0  0  0  0  0  0
    9.8336    8.8810   23.9742 C   0  0  0  0  0  0  0  0  0  0  0  0
    9.0735    9.1903   22.7630 C   0  0  0  0  0  0  0  0  0  0  0  0
    8.0825   10.6595   24.7607 C   0  0  0  0  0  0  0  0  0  0  0  0
  1  2  1  0
  2  3  2  0
  2  4  2  0
  2  5  1  0
  5  6  1  0
  6  7  1  0
  7  8  1  0
  8  9  1  0
  9 10  1  0
 10 11  1  0
 11 12  1  0
 12 13  1  0
 11 14  1  0
 14  8  1  0
 13 11  1  0
M  END
>  <inchikey>  (546) 
LHBRDYHDWDKHLQ-UHFFFAOYSA-N

>  <energy_score>  (546) 
-35.499367

>  <subsites>  (546) 
1 - Active Site

>  <alias>  (546) 
C7649-P138

>  <tags>  (546) 
openbind_a71ev2a_c1_scaffolds,BulkDock Fragalysis export,openbind_a71ev2a_c1_knitwork_impure,fragmenstein_placed

>  <distance_score>  (546) 
0.916681

>  <placement_batch>  (546) 
openbind_a71ev2a_c1_knitwork_impure

>  <name>  (546) 
C7649-P138

>  <ref_mols>  (546) 
A3054a,A0719a

>  <smiles>  (546) 
NS(=O)(=O)CCCN1CCC2(CC2)C1

>  <HIPPO Compound ID>  (546) 
4809

>  <HIPPO Pose ID>  (546) 
448514

>  <ref_pdb>  (546) 
A3849a

$$$$
C7674-P138
     RDKit          3D

 13 14  0  0  0  0  0  0  0  0999 V2000
    5.7596   15.9335   21.9175 N   0  0  0  0  0  0  0  0  0  0  0  0
    7.0446   15.0526   22.5381 S   0  0  0  0  0  0  0  0  0  0  0  0
    8.2371   15.7694   22.1631 O   0  0  0  0  0  0  0  0  0  0  0  0
    6.8181   13.6877   22.1132 O   0  0  0  0  0  0  0  0  0  0  0  0
    6.7156   15.2961   24.2873 C   0  0  0  0  0  0  0  0  0  0  0  0
    7.7494   14.6146   25.1635 C   0  0  0  0  0  0  0  0  0  0  0  0
    7.4786   13.1160   25.1804 C   0  0  0  0  0  0  0  0  0  0  0  0
    8.6715   12.3031   25.3633 N   0  0  0  0  0  0  0  0  0  0  0  0
    9.6005   12.3832   24.2072 C   0  0  0  0  0  0  0  0  0  0  0  0
    9.2268   11.2002   23.3292 C   0  0  0  0  0  0  0  0  0  0  0  0
    8.7419   10.1422   24.2518 C   0  0  2  0  0  0  0  0  0  0  0  0
    7.3223   10.1271   24.7104 C   0  0  0  0  0  0  0  0  0  0  0  0
    8.3184   10.8720   25.4829 C   0  0  2  0  0  0  0  0  0  0  0  0
  1  2  1  0
  2  3  2  0
  2  4  2  0
  2  5  1  0
  5  6  1  0
  6  7  1  0
  7  8  1  0
  8  9  1  0
  9 10  1  0
 11 10  1  6
 11 12  1  0
 13 12  1  6
 13  8  1  0
 13 11  1  0
M  END
>  <inchikey>  (547) 
FKUQYJCHXNTLRM-UHFFFAOYSA-N

>  <energy_score>  (547) 
-19.399797

>  <subsites>  (547) 
1 - Active Site

>  <alias>  (547) 
C7674-P138

>  <tags>  (547) 
openbind_a71ev2a_c1_scaffolds,BulkDock Fragalysis export,openbind_a71ev2a_c1_knitwork_impure,fragmenstein_placed

>  <distance_score>  (547) 
0.995201

>  <placement_batch>  (547) 
openbind_a71ev2a_c1_knitwork_impure

>  <name>  (547) 
C7674-P138

>  <ref_mols>  (547) 
A3054a,A0719a

>  <smiles>  (547) 
NS(=O)(=O)CCCN1CC[C@@H]2C[C@@H]21

>  <HIPPO Compound ID>  (547) 
21997

>  <HIPPO Pose ID>  (547) 
448523

>  <ref_pdb>  (547) 
A3849a

$$$$
C7678-P138
     RDKit          3D

 13 13  0  0  0  0  0  0  0  0999 V2000
    8.1737   15.6072   22.1069 N   0  0  0  0  0  0  0  0  0  0  0  0
    6.7960   14.7195   22.4309 S   0  0  0  0  0  0  0  0  0  0  0  0
    7.1209   13.3407   22.1407 O   0  0  0  0  0  0  0  0  0  0  0  0
    5.7157   15.3932   21.7484 O   0  0  0  0  0  0  0  0  0  0  0  0
    6.6016   14.9429   24.1911 C   0  0  0  0  0  0  0  0  0  0  0  0
    7.7289   14.3189   25.0053 C   0  0  0  0  0  0  0  0  0  0  0  0
    7.6303   14.7078   26.4878 C   0  0  0  0  0  0  0  0  0  0  0  0
    8.8124   15.5731   26.9801 C   0  0  0  0  0  0  0  0  0  0  0  0
    8.9065   16.9385   26.2666 C   0  0  0  0  0  0  0  0  0  0  0  0
    8.2250   18.0479   27.0579 C   0  0  0  0  0  0  0  0  0  0  0  0
    8.8874   18.2513   28.4210 C   0  0  0  0  0  0  0  0  0  0  0  0
    9.4877   16.9677   28.9967 C   0  0  0  0  0  0  0  0  0  0  0  0
    8.7355   15.7328   28.5144 C   0  0  0  0  0  0  0  0  0  0  0  0
  1  2  1  0
  2  3  2  0
  2  4  2  0
  2  5  1  0
  5  6  1  0
  6  7  1  0
  7  8  1  0
  8  9  1  0
  9 10  1  0
 10 11  1  0
 11 12  1  0
 12 13  1  0
 13  8  1  0
M  END
>  <inchikey>  (548) 
FJTKEURQIPWLEI-UHFFFAOYSA-N

>  <energy_score>  (548) 
-35.438597

>  <subsites>  (548) 
1 - Active Site

>  <alias>  (548) 
C7678-P138

>  <tags>  (548) 
openbind_a71ev2a_c1_scaffolds,BulkDock Fragalysis export,openbind_a71ev2a_c1_knitwork_impure,fragmenstein_placed

>  <distance_score>  (548) 
0.989508

>  <placement_batch>  (548) 
openbind_a71ev2a_c1_knitwork_impure

>  <name>  (548) 
C7678-P138

>  <ref_mols>  (548) 
A3054a,A0719a

>  <smiles>  (548) 
NS(=O)(=O)CCCC1CCCCC1

>  <HIPPO Compound ID>  (548) 
10158

>  <HIPPO Pose ID>  (548) 
448525

>  <ref_pdb>  (548) 
A3849a

$$$$
C1799-P256
     RDKit          3D

 15 17  0  0  0  0  0  0  0  0999 V2000
    8.7924   10.2646   24.9840 C   0  0  0  0  0  0  0  0  0  0  0  0
    9.4639   10.5797   23.6521 C   0  0  0  0  0  0  0  0  0  0  0  0
    9.8407   12.0630   23.5240 C   0  0  0  0  0  0  0  0  0  0  0  0
    8.7464   12.9400   23.9956 C   0  0  0  0  0  0  0  0  0  0  0  0
    7.7098   12.4848   24.8415 C   0  0  0  0  0  0  0  0  0  0  0  0
    6.8867   13.4626   25.2085 N   0  0  0  0  0  0  0  0  0  0  0  0
    7.3630   14.5854   24.5600 O   0  0  0  0  0  0  0  0  0  0  0  0
    8.4761   14.2772   23.8253 C   0  0  0  0  0  0  0  0  0  0  0  0
    9.0957   15.4484   23.1336 C   0  0  1  0  0  0  0  0  0  0  0  0
   10.5270   15.7211   23.6105 C   0  0  0  0  0  0  0  0  0  0  0  0
   11.6042   15.1151   22.7217 C   0  0  0  0  0  0  0  0  0  0  0  0
   11.3409   15.4132   21.2530 C   0  0  0  0  0  0  0  0  0  0  0  0
   10.0558   14.8644   20.8339 N   0  0  0  0  0  0  0  0  0  0  0  0
    8.9429   15.4268   21.6003 C   0  0  0  0  0  0  0  0  0  0  0  0
    7.5314   11.0824   25.2611 C   0  0  0  0  0  0  0  0  0  0  0  0
  1  2  1  0
  2  3  1  0
  3  4  1  0
  4  5  1  0
  5  6  2  0
  6  7  1  0
  7  8  1  0
  9  8  1  6
  9 10  1  0
 10 11  1  0
 11 12  1  0
 12 13  1  0
 13 14  1  0
  5 15  1  0
 15  1  1  0
  8  4  2  0
 14  9  1  0
M  END
>  <inchikey>  (549) 
TYJWRLDKTXVLTC-UHFFFAOYSA-N

>  <energy_score>  (549) 
-43.702492

>  <subsites>  (549) 
1 - Active Site

>  <alias>  (549) 
C1799-P256

>  <tags>  (549) 
openbind_a71ev2a_c1_scaffolds,BulkDock Fragalysis export,openbind_a71ev2a_c1_knitwork_impure,fragmenstein_placed

>  <distance_score>  (549) 
0.989054

>  <placement_batch>  (549) 
openbind_a71ev2a_c1_knitwork_impure

>  <name>  (549) 
C1799-P256

>  <ref_mols>  (549) 
A3986a,A3623a

>  <smiles>  (549) 
C1CCc2c(noc2[C@H]2CCCNC2)C1

>  <HIPPO Compound ID>  (549) 
1799

>  <HIPPO Pose ID>  (549) 
448762

>  <ref_pdb>  (549) 
A3849a

$$$$
C7506-P306
     RDKit          3D

 16 16  0  0  0  0  0  0  0  0999 V2000
    5.3555    9.8104   26.3015 C   0  0  0  0  0  0  0  0  0  0  0  0
    5.5154   11.2992   26.5683 C   0  0  1  0  0  0  0  0  0  0  0  0
    4.9438   11.5365   27.9942 C   0  0  0  0  0  0  0  0  0  0  0  0
    3.5774   11.1219   28.0979 O   0  0  0  0  0  0  0  0  0  0  0  0
    3.1939   10.9367   29.4714 C   0  0  0  0  0  0  0  0  0  0  0  0
    1.6995   10.6898   29.6375 C   0  0  0  0  0  0  0  0  0  0  0  0
    1.3025    9.5422   29.0478 F   0  0  0  0  0  0  0  0  0  0  0  0
    1.3891   10.6020   30.9534 F   0  0  0  0  0  0  0  0  0  0  0  0
    0.9839   11.7100   29.1165 F   0  0  0  0  0  0  0  0  0  0  0  0
    6.8988   11.8134   26.5844 N   0  0  0  0  0  0  0  0  0  0  0  0
    7.8142   11.6875   25.4428 C   0  0  1  0  0  0  0  0  0  0  0  0
    8.1856   10.2869   24.9916 C   0  0  0  0  0  0  0  0  0  0  0  0
    9.3006   10.2598   23.9498 C   0  0  0  0  0  0  0  0  0  0  0  0
    9.6888   11.6488   23.4532 C   0  0  0  0  0  0  0  0  0  0  0  0
    8.5255   12.4776   23.1476 N   0  0  0  0  0  0  0  0  0  0  0  0
    7.6348   12.6927   24.2945 C   0  0  0  0  0  0  0  0  0  0  0  0
  2  1  1  1
  2  3  1  0
  3  4  1  0
  4  5  1  0
  5  6  1  0
  6  7  1  0
  6  8  1  0
  6  9  1  0
  2 10  1  0
 11 10  1  6
 11 12  1  0
 12 13  1  0
 13 14  1  0
 14 15  1  0
 15 16  1  0
 16 11  1  0
M  END
>  <inchikey>  (550) 
GFQVOONUDCSYCR-UHFFFAOYSA-N

>  <energy_score>  (550) 
-28.057229

>  <subsites>  (550) 
1 - Active Site

>  <alias>  (550) 
C7506-P306

>  <tags>  (550) 
openbind_a71ev2a_c1_scaffolds,BulkDock Fragalysis export,openbind_a71ev2a_c1_knitwork_impure,fragmenstein_placed

>  <distance_score>  (550) 
0.954204

>  <placement_batch>  (550) 
openbind_a71ev2a_c1_knitwork_impure

>  <name>  (550) 
C7506-P306

>  <ref_mols>  (550) 
A1445a,A4322a

>  <smiles>  (550) 
C[C@@H](COCC(F)(F)F)N[C@H]1CCCNC1

>  <HIPPO Compound ID>  (550) 
8891

>  <HIPPO Pose ID>  (550) 
449545

>  <ref_pdb>  (550) 
A4351a

$$$$
C6726-P252
     RDKit          3D

 13 13  0  0  0  0  0  0  0  0999 V2000
   11.5153   14.8850   18.8459 C   0  0  0  0  0  0  0  0  0  0  0  0
   11.2362   15.6926   20.1029 C   0  0  0  0  0  0  0  0  0  0  0  0
   10.0348   16.5874   19.8998 C   0  0  0  0  0  0  0  0  0  0  0  0
   11.1113   14.8311   21.3542 C   0  0  0  0  0  0  0  0  0  0  0  0
    9.7727   14.8125   21.8558 O   0  0  0  0  0  0  0  0  0  0  0  0
    9.7046   14.1514   23.1211 C   0  0  1  0  0  0  0  0  0  0  0  0
    9.9900   15.1464   24.2412 C   0  0  0  0  0  0  0  0  0  0  0  0
    8.3046   13.5474   23.2671 C   0  0  0  0  0  0  0  0  0  0  0  0
    8.3654   12.1716   23.8484 C   0  0  0  0  0  0  0  0  0  0  0  0
    9.2685   11.2442   23.6011 N   0  0  0  0  0  0  0  0  0  0  0  0
    8.8534   10.1227   24.2652 C   0  0  0  0  0  0  0  0  0  0  0  0
    7.6860   10.3746   24.9434 C   0  0  0  0  0  0  0  0  0  0  0  0
    7.3891   11.6829   24.6788 N   0  0  0  0  0  0  0  0  0  0  0  0
  1  2  1  0
  2  3  1  0
  2  4  1  0
  4  5  1  0
  5  6  1  0
  6  7  1  1
  6  8  1  0
  8  9  1  0
  9 10  2  0
 10 11  1  0
 11 12  2  0
 12 13  1  0
 13  9  1  0
M  END
>  <inchikey>  (551) 
YQOYVOMTPHOFRP-UHFFFAOYSA-N

>  <energy_score>  (551) 
-20.424537

>  <subsites>  (551) 
1 - Active Site

>  <alias>  (551) 
C6726-P252

>  <tags>  (551) 
openbind_a71ev2a_c1_scaffolds,BulkDock Fragalysis export,openbind_a71ev2a_c1_knitwork_impure,fragmenstein_placed

>  <distance_score>  (551) 
0.87075

>  <placement_batch>  (551) 
openbind_a71ev2a_c1_knitwork_impure

>  <name>  (551) 
C6726-P252

>  <ref_mols>  (551) 
A3975a,A3371a

>  <smiles>  (551) 
CC(C)CO[C@@H](C)Cc1ncc[nH]1

>  <HIPPO Compound ID>  (551) 
20946

>  <HIPPO Pose ID>  (551) 
449639

>  <ref_pdb>  (551) 
A4351a

$$$$
C13035-P321
     RDKit          3D

 18 19  0  0  0  0  0  0  0  0999 V2000
    3.5786   12.0878   30.7960 C   0  0  0  0  0  0  0  0  0  0  0  0
    3.2365   11.0237   29.7551 C   0  0  2  0  0  0  0  0  0  0  0  0
    3.6419   11.5398   28.3685 C   0  0  0  0  0  0  0  0  0  0  0  0
    4.9425   10.9111   27.8726 C   0  0  0  0  0  0  0  0  0  0  0  0
    5.3093    9.8521   28.1943 O   0  0  0  0  0  0  0  0  0  0  0  0
    5.5467   11.9185   26.8653 N   0  0  0  0  0  0  0  0  0  0  0  0
    6.6043   11.7992   26.0316 C   0  0  0  0  0  0  0  0  0  0  0  0
    7.3084   10.6178   25.6498 C   0  0  0  0  0  0  0  0  0  0  0  0
    8.2401   11.0746   24.7585 C   0  0  0  0  0  0  0  0  0  0  0  0
    8.0536   12.4120   24.6921 N   0  0  0  0  0  0  0  0  0  0  0  0
    7.0811   12.9001   25.4388 N   0  0  0  0  0  0  0  0  0  0  0  0
    8.9540   13.1209   23.8138 C   0  0  0  0  0  0  0  0  0  0  0  0
   10.0061   12.0364   23.5494 C   0  0  0  0  0  0  0  0  0  0  0  0
    9.3291   10.6671   23.8574 C   0  0  0  0  0  0  0  0  0  0  0  0
    1.7556   10.6922   29.7871 C   0  0  0  0  0  0  0  0  0  0  0  0
    1.3605   10.3304   31.0253 F   0  0  0  0  0  0  0  0  0  0  0  0
    1.4647    9.6732   28.9478 F   0  0  0  0  0  0  0  0  0  0  0  0
    1.0110   11.7519   29.4058 F   0  0  0  0  0  0  0  0  0  0  0  0
  2  1  1  1
  2  3  1  0
  3  4  1  0
  4  5  2  0
  4  6  1  0
  6  7  1  0
  7  8  1  0
  8  9  2  0
  9 10  1  0
 10 11  1  0
 10 12  1  0
 12 13  1  0
 13 14  1  0
  2 15  1  0
 15 16  1  0
 15 17  1  0
 15 18  1  0
 11  7  2  0
 14  9  1  0
M  END
>  <inchikey>  (552) 
XPBCDWNBSRTCDV-UHFFFAOYSA-N

>  <energy_score>  (552) 
-46.086018

>  <subsites>  (552) 
1 - Active Site

>  <alias>  (552) 
C13035-P321

>  <tags>  (552) 
openbind_a71ev2a_c1_scaffolds,BulkDock Fragalysis export,openbind_a71ev2a_c1_knitwork_impure,fragmenstein_placed

>  <distance_score>  (552) 
0.982499

>  <placement_batch>  (552) 
openbind_a71ev2a_c1_knitwork_impure

>  <name>  (552) 
C13035-P321

>  <ref_mols>  (552) 
A1445a,A4350a

>  <smiles>  (552) 
C[C@H](CC(=O)Nc1cc2n(n1)CCC2)C(F)(F)F

>  <HIPPO Compound ID>  (552) 
1109

>  <HIPPO Pose ID>  (552) 
449813

>  <ref_pdb>  (552) 
A4351a

$$$$
C11210-P213
     RDKit          3D

 11 11  0  0  0  0  0  0  0  0999 V2000
   10.8093   15.4757   23.5228 C   0  0  0  0  0  0  0  0  0  0  0  0
    9.8146   14.6846   22.6841 C   0  0  0  0  0  0  0  0  0  0  0  0
    8.6981   14.0639   23.5224 C   0  0  0  0  0  0  0  0  0  0  0  0
    9.1441   12.8414   24.2967 C   0  0  0  0  0  0  0  0  0  0  0  0
   10.3066   12.4623   24.4002 O   0  0  0  0  0  0  0  0  0  0  0  0
    8.1088   12.0266   24.9467 C   0  0  0  0  0  0  0  0  0  0  0  0
    8.1395   10.6476   24.7789 C   0  0  0  0  0  0  0  0  0  0  0  0
    7.2072    9.8770   25.4566 C   0  0  0  0  0  0  0  0  0  0  0  0
    6.3094   10.4979   26.3076 C   0  0  0  0  0  0  0  0  0  0  0  0
    6.2703   11.8321   26.5024 N   0  0  0  0  0  0  0  0  0  0  0  0
    7.1574   12.5750   25.7941 C   0  0  0  0  0  0  0  0  0  0  0  0
  1  2  1  0
  2  3  1  0
  3  4  1  0
  4  5  2  0
  4  6  1  0
  6  7  2  0
  7  8  1  0
  8  9  2  0
  9 10  1  0
 10 11  2  0
 11  6  1  0
M  END
>  <inchikey>  (553) 
RYAINGBGWASFKK-UHFFFAOYSA-N

>  <energy_score>  (553) 
-10.395968

>  <subsites>  (553) 
1 - Active Site

>  <alias>  (553) 
C11210-P213

>  <tags>  (553) 
openbind_a71ev2a_c1_scaffolds,BulkDock Fragalysis export,openbind_a71ev2a_c1_knitwork_impure,fragmenstein_placed

>  <distance_score>  (553) 
0.920453

>  <placement_batch>  (553) 
openbind_a71ev2a_c1_knitwork_impure

>  <name>  (553) 
C11210-P213

>  <ref_mols>  (553) 
A1779a,A3548a

>  <smiles>  (553) 
CCCC(=O)c1cccnc1

>  <HIPPO Compound ID>  (553) 
5394

>  <HIPPO Pose ID>  (553) 
450027

>  <ref_pdb>  (553) 
A4351a

$$$$
C11229-P213
     RDKit          3D

 15 15  0  0  0  0  0  0  0  0999 V2000
   10.9939   15.3530   19.2131 C   0  0  0  0  0  0  0  0  0  0  0  0
   11.4510   15.6964   20.2682 C   0  0  0  0  0  0  0  0  0  0  0  0
   12.0803   16.2197   21.4841 C   0  0  0  0  0  0  0  0  0  0  0  0
   12.0234   15.2634   22.6692 C   0  0  0  0  0  0  0  0  0  0  0  0
   10.7028   15.2829   23.4355 C   0  0  0  0  0  0  0  0  0  0  0  0
    9.5760   14.5710   22.6836 C   0  0  0  0  0  0  0  0  0  0  0  0
    8.5067   14.0432   23.6335 C   0  0  0  0  0  0  0  0  0  0  0  0
    8.9711   12.7989   24.3629 C   0  0  0  0  0  0  0  0  0  0  0  0
   10.1337   12.4073   24.4213 O   0  0  0  0  0  0  0  0  0  0  0  0
    7.9576   11.9813   25.0339 C   0  0  0  0  0  0  0  0  0  0  0  0
    7.9992   10.6040   24.8633 C   0  0  0  0  0  0  0  0  0  0  0  0
    7.0800    9.8288   25.5491 C   0  0  0  0  0  0  0  0  0  0  0  0
    6.1896   10.4414   26.4136 C   0  0  0  0  0  0  0  0  0  0  0  0
    6.1426   11.7746   26.6113 N   0  0  0  0  0  0  0  0  0  0  0  0
    7.0138   12.5245   25.8924 C   0  0  0  0  0  0  0  0  0  0  0  0
  1  2  3  0
  2  3  1  0
  3  4  1  0
  4  5  1  0
  5  6  1  0
  6  7  1  0
  7  8  1  0
  8  9  2  0
  8 10  1  0
 10 11  2  0
 11 12  1  0
 12 13  2  0
 13 14  1  0
 14 15  2  0
 15 10  1  0
M  END
>  <inchikey>  (554) 
FKMAEMGSWVNCKY-UHFFFAOYSA-N

>  <energy_score>  (554) 
-9.796384

>  <subsites>  (554) 
1 - Active Site

>  <alias>  (554) 
C11229-P213

>  <tags>  (554) 
openbind_a71ev2a_c1_scaffolds,BulkDock Fragalysis export,openbind_a71ev2a_c1_knitwork_impure,fragmenstein_placed

>  <distance_score>  (554) 
0.840116

>  <placement_batch>  (554) 
openbind_a71ev2a_c1_knitwork_impure

>  <name>  (554) 
C11229-P213

>  <ref_mols>  (554) 
A1779a,A3548a

>  <smiles>  (554) 
C#CCCCCCC(=O)c1cccnc1

>  <HIPPO Compound ID>  (554) 
21168

>  <HIPPO Pose ID>  (554) 
450036

>  <ref_pdb>  (554) 
A4351a

$$$$
C9125-P22
     RDKit          3D

 13 13  0  0  0  0  0  0  0  0999 V2000
    7.8068   10.9052   25.1429 C   0  0  0  0  0  0  0  0  0  0  0  0
    8.9138   10.4968   24.2035 C   0  0  0  0  0  0  0  0  0  0  0  0
    9.7844   11.6161   23.6943 C   0  0  0  0  0  0  0  0  0  0  0  0
   10.8559   11.3045   23.1742 O   0  0  0  0  0  0  0  0  0  0  0  0
    9.2703   13.0546   23.7510 C   0  0  0  0  0  0  0  0  0  0  0  0
   10.3811   14.0153   23.7202 N   0  0  0  0  0  0  0  0  0  0  0  0
    9.9825   15.2719   24.3337 C   0  0  0  0  0  0  0  0  0  0  0  0
   10.9950   14.1249   22.3747 C   0  0  2  0  0  0  0  0  0  0  0  0
   12.5069   13.8714   22.4582 C   0  0  0  0  0  0  0  0  0  0  0  0
   13.1226   15.2505   22.5539 C   0  0  0  0  0  0  0  0  0  0  0  0
   12.2242   16.0749   21.8067 N   0  0  0  0  0  0  0  0  0  0  0  0
   10.9571   15.5270   21.7497 C   0  0  0  0  0  0  0  0  0  0  0  0
    9.9822   16.1134   21.3058 O   0  0  0  0  0  0  0  0  0  0  0  0
  1  2  1  0
  2  3  1  0
  3  4  2  0
  3  5  1  0
  5  6  1  0
  6  7  1  0
  8  6  1  1
  8  9  1  0
  9 10  1  0
 10 11  1  0
 11 12  1  0
 12 13  2  0
 12  8  1  0
M  END
>  <inchikey>  (555) 
XFTRGEJLGGFFLL-UHFFFAOYSA-N

>  <energy_score>  (555) 
-28.839976

>  <subsites>  (555) 
1 - Active Site

>  <alias>  (555) 
C9125-P22

>  <tags>  (555) 
openbind_a71ev2a_c1_scaffolds,BulkDock Fragalysis export,openbind_a71ev2a_c1_knitwork_impure,fragmenstein_placed

>  <distance_score>  (555) 
0.880134

>  <placement_batch>  (555) 
openbind_a71ev2a_c1_knitwork_impure

>  <name>  (555) 
C9125-P22

>  <ref_mols>  (555) 
A1775a,A0528a

>  <smiles>  (555) 
CCC(=O)CN(C)[C@@H]1CCNC1=O

>  <HIPPO Compound ID>  (555) 
13661

>  <HIPPO Pose ID>  (555) 
450186

>  <ref_pdb>  (555) 
A4351a

$$$$
C6791-P465
     RDKit          3D

 12 13  0  0  0  0  0  0  0  0999 V2000
    9.3321   10.3090   23.8805 C   0  0  0  0  0  0  0  0  0  0  0  0
    9.5086   11.5503   23.2996 C   0  0  0  0  0  0  0  0  0  0  0  0
    8.7910   12.6139   23.8003 C   0  0  0  0  0  0  0  0  0  0  0  0
    8.8454   13.8895   23.2697 N   0  0  0  0  0  0  0  0  0  0  0  0
    9.1434   14.2031   21.8613 C   0  0  0  0  0  0  0  0  0  0  0  0
   10.6313   14.3833   21.5562 C   0  0  0  0  0  0  0  0  0  0  0  0
   11.4217   15.6321   22.6150 S   0  0  0  0  0  0  0  0  0  0  0  0
   10.7712   15.0857   24.2263 C   0  0  0  0  0  0  0  0  0  0  0  0
    9.2493   14.9300   24.2167 C   0  0  0  0  0  0  0  0  0  0  0  0
    7.9692   12.4209   24.8481 N   0  0  0  0  0  0  0  0  0  0  0  0
    7.8431   11.1748   25.3291 C   0  0  0  0  0  0  0  0  0  0  0  0
    8.4894   10.0882   24.8985 N   0  0  0  0  0  0  0  0  0  0  0  0
  1  2  2  0
  2  3  1  0
  3  4  1  0
  4  5  1  0
  5  6  1  0
  6  7  1  0
  7  8  1  0
  8  9  1  0
  3 10  2  0
 10 11  1  0
 11 12  2  0
 12  1  1  0
  9  4  1  0
M  END
>  <inchikey>  (556) 
ASMMGLVTGJDGEB-UHFFFAOYSA-N

>  <energy_score>  (556) 
-11.797199

>  <subsites>  (556) 
1 - Active Site

>  <alias>  (556) 
C6791-P465

>  <tags>  (556) 
openbind_a71ev2a_c1_scaffolds,BulkDock Fragalysis export,openbind_a71ev2a_c1_knitwork_impure,fragmenstein_placed

>  <distance_score>  (556) 
0.837899

>  <placement_batch>  (556) 
openbind_a71ev2a_c1_knitwork_impure

>  <name>  (556) 
C6791-P465

>  <ref_mols>  (556) 
A4786a,A1068a

>  <smiles>  (556) 
c1cc(N2CCSCC2)ncn1

>  <HIPPO Compound ID>  (556) 
2503

>  <HIPPO Pose ID>  (556) 
450266

>  <ref_pdb>  (556) 
A4351a

$$$$
C6812-P465
     RDKit          3D

 11 12  0  0  0  0  0  0  0  0999 V2000
    9.3178   10.4857   23.8639 C   0  0  0  0  0  0  0  0  0  0  0  0
    9.6236   11.7353   23.3626 C   0  0  0  0  0  0  0  0  0  0  0  0
    8.9546   12.8263   23.8837 C   0  0  0  0  0  0  0  0  0  0  0  0
    9.2103   14.1337   23.4626 N   0  0  0  0  0  0  0  0  0  0  0  0
    8.7853   14.4501   22.0837 C   0  0  0  0  0  0  0  0  0  0  0  0
   10.0546   14.8811   21.3545 C   0  0  0  0  0  0  0  0  0  0  0  0
   10.8712   15.5173   22.4597 C   0  0  0  0  0  0  0  0  0  0  0  0
   10.5975   14.5965   23.6464 C   0  0  0  0  0  0  0  0  0  0  0  0
    8.0133   12.6501   24.8253 N   0  0  0  0  0  0  0  0  0  0  0  0
    7.7802   11.3946   25.2421 C   0  0  0  0  0  0  0  0  0  0  0  0
    8.3942   10.2842   24.8156 N   0  0  0  0  0  0  0  0  0  0  0  0
  1  2  2  0
  2  3  1  0
  3  4  1  0
  4  5  1  0
  5  6  1  0
  6  7  1  0
  7  8  1  0
  3  9  2  0
  9 10  1  0
 10 11  2  0
 11  1  1  0
  8  4  1  0
M  END
>  <inchikey>  (557) 
VZVGFJIPTVRBAH-UHFFFAOYSA-N

>  <energy_score>  (557) 
-3.280404

>  <subsites>  (557) 
1 - Active Site

>  <alias>  (557) 
C6812-P465

>  <tags>  (557) 
openbind_a71ev2a_c1_scaffolds,BulkDock Fragalysis export,openbind_a71ev2a_c1_knitwork_impure,fragmenstein_placed

>  <distance_score>  (557) 
0.84744

>  <placement_batch>  (557) 
openbind_a71ev2a_c1_knitwork_impure

>  <name>  (557) 
C6812-P465

>  <ref_mols>  (557) 
A4786a,A1068a

>  <smiles>  (557) 
c1cc(N2CCCC2)ncn1

>  <HIPPO Compound ID>  (557) 
8131

>  <HIPPO Pose ID>  (557) 
450276

>  <ref_pdb>  (557) 
A4351a

$$$$
C13035-P161
     RDKit          3D

 18 19  0  0  0  0  0  0  0  0999 V2000
    3.1183   12.6304   29.8506 C   0  0  0  0  0  0  0  0  0  0  0  0
    3.0434   11.2837   29.1234 C   0  0  1  0  0  0  0  0  0  0  0  0
    4.3218   10.4545   29.3100 C   0  0  0  0  0  0  0  0  0  0  0  0
    5.5031   11.1574   28.6438 C   0  0  0  0  0  0  0  0  0  0  0  0
    5.9848   12.1115   29.1170 O   0  0  0  0  0  0  0  0  0  0  0  0
    5.8089   10.4351   27.3040 N   0  0  0  0  0  0  0  0  0  0  0  0
    6.6538   10.7731   26.2891 C   0  0  0  0  0  0  0  0  0  0  0  0
    7.1799    9.8508   25.3429 C   0  0  0  0  0  0  0  0  0  0  0  0
    8.0942   10.5749   24.6384 C   0  0  0  0  0  0  0  0  0  0  0  0
    7.9199   11.8515   25.0386 N   0  0  0  0  0  0  0  0  0  0  0  0
    7.1581   12.0031   26.1151 N   0  0  0  0  0  0  0  0  0  0  0  0
    8.7792   12.8126   24.3885 C   0  0  0  0  0  0  0  0  0  0  0  0
    9.7401   11.8939   23.6056 C   0  0  0  0  0  0  0  0  0  0  0  0
    9.1753   10.4529   23.6556 C   0  0  0  0  0  0  0  0  0  0  0  0
    1.8194   10.5296   29.6097 C   0  0  0  0  0  0  0  0  0  0  0  0
    1.8610   10.2923   30.9355 F   0  0  0  0  0  0  0  0  0  0  0  0
    1.7012    9.3427   28.9735 F   0  0  0  0  0  0  0  0  0  0  0  0
    0.6969   11.2311   29.3443 F   0  0  0  0  0  0  0  0  0  0  0  0
  2  1  1  1
  2  3  1  0
  3  4  1  0
  4  5  2  0
  4  6  1  0
  6  7  1  0
  7  8  1  0
  8  9  2  0
  9 10  1  0
 10 11  1  0
 10 12  1  0
 12 13  1  0
 13 14  1  0
  2 15  1  0
 15 16  1  0
 15 17  1  0
 15 18  1  0
 11  7  2  0
 14  9  1  0
M  END
>  <inchikey>  (558) 
YQLMJTHUYFOGIH-UHFFFAOYSA-N

>  <energy_score>  (558) 
-10.632606

>  <subsites>  (558) 
1 - Active Site

>  <alias>  (558) 
C13035-P161

>  <tags>  (558) 
openbind_a71ev2a_c1_scaffolds,BulkDock Fragalysis export,openbind_a71ev2a_c1_knitwork_impure,fragmenstein_placed

>  <distance_score>  (558) 
0.977046

>  <placement_batch>  (558) 
openbind_a71ev2a_c1_knitwork_impure

>  <name>  (558) 
C13035-P161

>  <ref_mols>  (558) 
A1445a,A3229a

>  <smiles>  (558) 
C[C@@H](CC(=O)Nc1cc2n(n1)CCC2)C(F)(F)F

>  <HIPPO Compound ID>  (558) 
13681

>  <HIPPO Pose ID>  (558) 
450737

>  <ref_pdb>  (558) 
A4351a

$$$$
C7527-P441
     RDKit          3D

 15 15  0  0  0  0  0  0  0  0999 V2000
    5.9905   11.5936   25.0145 F   0  0  0  0  0  0  0  0  0  0  0  0
    6.2711   11.2557   26.2853 C   0  0  0  0  0  0  0  0  0  0  0  0
    5.4310   10.2680   26.6653 F   0  0  0  0  0  0  0  0  0  0  0  0
    7.5204   10.7560   26.2996 F   0  0  0  0  0  0  0  0  0  0  0  0
    6.0645   12.4476   27.2148 C   0  0  0  0  0  0  0  0  0  0  0  0
    6.9132   13.5819   27.0150 O   0  0  0  0  0  0  0  0  0  0  0  0
    6.8010   14.1749   25.7168 C   0  0  0  0  0  0  0  0  0  0  0  0
    7.9573   13.7131   24.8211 C   0  0  0  0  0  0  0  0  0  0  0  0
    7.9942   14.5309   23.6121 N   0  0  0  0  0  0  0  0  0  0  0  0
    9.1060   14.1917   22.7262 N   0  0  0  0  0  0  0  0  0  0  0  0
   10.3879   14.4305   23.4195 C   0  0  0  0  0  0  0  0  0  0  0  0
   11.5972   14.3319   22.5074 C   0  0  0  0  0  0  0  0  0  0  0  0
   11.4818   15.2828   21.3362 C   0  0  0  0  0  0  0  0  0  0  0  0
   10.1775   15.0376   20.6007 C   0  0  0  0  0  0  0  0  0  0  0  0
    8.9842   15.0907   21.5485 C   0  0  0  0  0  0  0  0  0  0  0  0
  1  2  1  0
  2  3  1  0
  2  4  1  0
  2  5  1  0
  5  6  1  0
  6  7  1  0
  7  8  1  0
  8  9  1  0
  9 10  1  0
 10 11  1  0
 11 12  1  0
 12 13  1  0
 13 14  1  0
 14 15  1  0
 15 10  1  0
M  END
>  <inchikey>  (559) 
VDTHFFGZXLSRON-UHFFFAOYSA-N

>  <energy_score>  (559) 
-21.988164

>  <subsites>  (559) 
1 - Active Site

>  <alias>  (559) 
C7527-P441

>  <tags>  (559) 
openbind_a71ev2a_c1_scaffolds,BulkDock Fragalysis export,openbind_a71ev2a_c1_knitwork_impure,fragmenstein_placed

>  <distance_score>  (559) 
0.862294

>  <placement_batch>  (559) 
openbind_a71ev2a_c1_knitwork_impure

>  <name>  (559) 
C7527-P441

>  <ref_mols>  (559) 
A1445a,A4708a

>  <smiles>  (559) 
FC(F)(F)COCCNN1CCCCC1

>  <HIPPO Compound ID>  (559) 
34794

>  <HIPPO Pose ID>  (559) 
451455

>  <ref_pdb>  (559) 
A4351a

$$$$
C7529-P441
     RDKit          3D

 13 13  0  0  0  0  0  0  0  0999 V2000
    8.9193   14.3151   26.0689 O   0  0  0  0  0  0  0  0  0  0  0  0
    8.1482   13.8080   25.3383 C   0  0  0  0  0  0  0  0  0  0  0  0
    8.2122   13.5895   23.7749 N   0  0  0  0  0  0  0  0  0  0  0  0
    9.2292   13.8544   22.8714 N   0  0  0  0  0  0  0  0  0  0  0  0
   10.4734   14.2598   23.5372 C   0  0  0  0  0  0  0  0  0  0  0  0
   11.6113   14.3982   22.5427 C   0  0  0  0  0  0  0  0  0  0  0  0
   11.2722   15.3817   21.4401 C   0  0  0  0  0  0  0  0  0  0  0  0
    9.9340   15.0406   20.8035 C   0  0  0  0  0  0  0  0  0  0  0  0
    8.8307   14.8292   21.8420 C   0  0  0  0  0  0  0  0  0  0  0  0
    6.8562   13.1017   25.7907 C   0  0  0  0  0  0  0  0  0  0  0  0
    6.2255   13.7388   26.8102 F   0  0  0  0  0  0  0  0  0  0  0  0
    5.9623   12.9762   24.7729 F   0  0  0  0  0  0  0  0  0  0  0  0
    7.3030   11.4584   26.2846 Cl  0  0  0  0  0  0  0  0  0  0  0  0
  1  2  2  0
  2  3  1  0
  3  4  1  0
  4  5  1  0
  5  6  1  0
  6  7  1  0
  7  8  1  0
  8  9  1  0
  2 10  1  0
 10 11  1  0
 10 12  1  0
 10 13  1  0
  9  4  1  0
M  END
>  <inchikey>  (560) 
WGYSJYZCOQJSGJ-UHFFFAOYSA-N

>  <energy_score>  (560) 
-18.740754

>  <subsites>  (560) 
1 - Active Site

>  <alias>  (560) 
C7529-P441

>  <tags>  (560) 
openbind_a71ev2a_c1_scaffolds,BulkDock Fragalysis export,openbind_a71ev2a_c1_knitwork_impure,fragmenstein_placed

>  <distance_score>  (560) 
0.904046

>  <placement_batch>  (560) 
openbind_a71ev2a_c1_knitwork_impure

>  <name>  (560) 
C7529-P441

>  <ref_mols>  (560) 
A1445a,A4708a

>  <smiles>  (560) 
O=C(NN1CCCCC1)C(F)(F)Cl

>  <HIPPO Compound ID>  (560) 
33363

>  <HIPPO Pose ID>  (560) 
451456

>  <ref_pdb>  (560) 
A4351a

$$$$
C4135-P200
     RDKit          3D

 21 23  0  0  0  0  0  0  0  0999 V2000
    8.0405   14.7489   21.3846 C   0  0  0  0  0  0  0  0  0  0  0  0
    6.8673   14.0836   22.1034 C   0  0  0  0  0  0  0  0  0  0  0  0
    6.3109   14.9299   23.2521 C   0  0  1  0  0  0  0  0  0  0  0  0
    4.9322   15.4072   23.0800 N   0  0  0  0  0  0  0  0  0  0  0  0
    3.7382   14.6253   22.7054 C   0  0  2  0  0  0  0  0  0  0  0  0
    3.0124   13.7354   23.7092 C   0  0  0  0  0  0  0  0  0  0  0  0
    3.4406   14.3215   21.2491 C   0  0  0  0  0  0  0  0  0  0  0  0
    2.7210   15.0774   20.4272 N   0  0  0  0  0  0  0  0  0  0  0  0
    2.5080   14.2735   19.3370 C   0  0  0  0  0  0  0  0  0  0  0  0
    3.1804   13.0884   19.4897 C   0  0  0  0  0  0  0  0  0  0  0  0
    3.3425   11.9050   18.6307 C   0  0  0  0  0  0  0  0  0  0  0  0
    3.7821   13.0990   20.7229 O   0  0  0  0  0  0  0  0  0  0  0  0
    6.8325   14.6475   24.7244 C   0  0  0  0  0  0  0  0  0  0  0  0
    8.3739   14.5093   24.7458 C   0  0  0  0  0  0  0  0  0  0  0  0
    8.5533   13.0385   24.6475 C   0  0  0  0  0  0  0  0  0  0  0  0
    9.5640   12.3349   24.0204 C   0  0  0  0  0  0  0  0  0  0  0  0
    9.4744   10.9519   24.0288 C   0  0  0  0  0  0  0  0  0  0  0  0
    8.4692   10.3228   24.7683 C   0  0  0  0  0  0  0  0  0  0  0  0
    7.4520   11.0439   25.3899 C   0  0  0  0  0  0  0  0  0  0  0  0
    7.4575   12.4058   25.2267 C   0  0  0  0  0  0  0  0  0  0  0  0
    6.3829   13.4010   25.5324 C   0  0  0  0  0  0  0  0  0  0  0  0
  1  2  1  0
  3  2  1  6
  3  4  1  0
  4  5  1  0
  5  6  1  1
  5  7  1  0
  7  8  2  0
  8  9  1  0
  9 10  2  0
 10 11  1  0
 10 12  1  0
  3 13  1  0
 13 14  1  0
 14 15  1  0
 15 16  2  0
 16 17  1  0
 17 18  2  0
 18 19  1  0
 19 20  2  0
 20 21  1  0
 12  7  1  0
 21 13  1  0
 20 15  1  0
M  END
>  <inchikey>  (561) 
ODTPIPWYWNRRDZ-UHFFFAOYSA-N

>  <energy_score>  (561) 
-14.361348

>  <subsites>  (561) 
1 - Active Site

>  <alias>  (561) 
C4135-P200

>  <tags>  (561) 
openbind_a71ev2a_c1_scaffolds,BulkDock Fragalysis export,openbind_a71ev2a_c1_knitwork_impure,fragmenstein_placed

>  <distance_score>  (561) 
0.97599

>  <placement_batch>  (561) 
openbind_a71ev2a_c1_knitwork_impure

>  <name>  (561) 
C4135-P200

>  <ref_mols>  (561) 
A3623a,A1778a

>  <smiles>  (561) 
CC[C@@H](N[C@H](C)c1ncc(C)o1)C1Cc2ccccc2C1

>  <HIPPO Compound ID>  (561) 
5959

>  <HIPPO Pose ID>  (561) 
451737

>  <ref_pdb>  (561) 
A4351a

$$$$
C15024-P274
     RDKit          3D

 15 15  0  0  0  0  0  0  0  0999 V2000
   12.0024   15.6834   21.3846 C   0  0  0  0  0  0  0  0  0  0  0  0
   11.7271   14.7895   22.5824 C   0  0  0  0  0  0  0  0  0  0  0  0
   10.5892   15.3252   23.4222 C   0  0  0  0  0  0  0  0  0  0  0  0
    8.9642   14.9518   22.7629 S   0  0  0  0  0  0  0  0  0  0  0  0
    9.0417   14.5503   21.3800 O   0  0  0  0  0  0  0  0  0  0  0  0
    8.0352   15.9709   23.1930 O   0  0  0  0  0  0  0  0  0  0  0  0
    8.5970   13.5261   23.6048 N   0  0  0  0  0  0  0  0  0  0  0  0
    7.6780   13.6661   24.7500 C   0  0  2  0  0  0  0  0  0  0  0  0
    8.3352   14.4929   25.8572 C   0  0  0  0  0  0  0  0  0  0  0  0
    7.1785   12.3577   25.3256 C   0  0  0  0  0  0  0  0  0  0  0  0
    6.1019   12.4000   26.2275 C   0  0  0  0  0  0  0  0  0  0  0  0
    5.5852   11.2340   26.7665 C   0  0  0  0  0  0  0  0  0  0  0  0
    6.1476   10.0417   26.3683 C   0  0  0  0  0  0  0  0  0  0  0  0
    7.1903    9.9439   25.5183 N   0  0  0  0  0  0  0  0  0  0  0  0
    7.6857   11.1016   25.0157 C   0  0  0  0  0  0  0  0  0  0  0  0
  1  2  1  0
  2  3  1  0
  3  4  1  0
  4  5  2  0
  4  6  2  0
  4  7  1  0
  7  8  1  0
  8  9  1  1
  8 10  1  0
 10 11  2  0
 11 12  1  0
 12 13  2  0
 13 14  1  0
 14 15  2  0
 15 10  1  0
M  END
>  <inchikey>  (562) 
BODYQHRQNOBDAC-UHFFFAOYSA-N

>  <energy_score>  (562) 
-36.782693

>  <subsites>  (562) 
1 - Active Site

>  <alias>  (562) 
C15024-P274

>  <tags>  (562) 
openbind_a71ev2a_c1_scaffolds,BulkDock Fragalysis export,openbind_a71ev2a_c1_knitwork_impure,fragmenstein_placed

>  <distance_score>  (562) 
0.995348

>  <placement_batch>  (562) 
openbind_a71ev2a_c1_knitwork_impure

>  <name>  (562) 
C15024-P274

>  <ref_mols>  (562) 
A4031a,A0719a

>  <smiles>  (562) 
CCCS(=O)(=O)N[C@H](C)c1cccnc1

>  <HIPPO Compound ID>  (562) 
13045

>  <HIPPO Pose ID>  (562) 
452154

>  <ref_pdb>  (562) 
A4351a

$$$$
C15036-P274
     RDKit          3D

 14 14  0  0  0  0  0  0  0  0999 V2000
   12.1259   16.1926   21.5349 N   0  0  0  0  0  0  0  0  0  0  0  0
   11.5282   15.5049   22.2475 C   0  0  0  0  0  0  0  0  0  0  0  0
   10.7316   14.6444   23.1089 C   0  0  0  0  0  0  0  0  0  0  0  0
    9.3535   14.3911   22.4859 C   0  0  0  0  0  0  0  0  0  0  0  0
    8.6424   13.2133   23.1072 N   0  0  0  0  0  0  0  0  0  0  0  0
    8.5151   13.3307   24.7877 S   0  0  0  0  0  0  0  0  0  0  0  0
    9.8239   12.9776   25.2843 O   0  0  0  0  0  0  0  0  0  0  0  0
    7.9289   14.6134   25.0990 O   0  0  0  0  0  0  0  0  0  0  0  0
    7.4168   12.0703   25.2884 C   0  0  0  0  0  0  0  0  0  0  0  0
    6.3471   12.3700   26.1293 C   0  0  0  0  0  0  0  0  0  0  0  0
    5.6041   11.3279   26.6669 C   0  0  0  0  0  0  0  0  0  0  0  0
    5.9543   10.0322   26.3278 C   0  0  0  0  0  0  0  0  0  0  0  0
    6.9780    9.7166   25.5037 N   0  0  0  0  0  0  0  0  0  0  0  0
    7.7008   10.7476   25.0027 C   0  0  0  0  0  0  0  0  0  0  0  0
  1  2  3  0
  2  3  1  0
  3  4  1  0
  4  5  1  0
  5  6  1  0
  6  7  2  0
  6  8  2  0
  6  9  1  0
  9 10  2  0
 10 11  1  0
 11 12  2  0
 12 13  1  0
 13 14  2  0
 14  9  1  0
M  END
>  <inchikey>  (563) 
LWUPXCRKWPNRJC-UHFFFAOYSA-N

>  <energy_score>  (563) 
-23.450539

>  <subsites>  (563) 
1 - Active Site

>  <alias>  (563) 
C15036-P274

>  <tags>  (563) 
openbind_a71ev2a_c1_scaffolds,BulkDock Fragalysis export,openbind_a71ev2a_c1_knitwork_impure,fragmenstein_placed

>  <distance_score>  (563) 
0.946598

>  <placement_batch>  (563) 
openbind_a71ev2a_c1_knitwork_impure

>  <name>  (563) 
C15036-P274

>  <ref_mols>  (563) 
A4031a,A0719a

>  <smiles>  (563) 
N#CCCNS(=O)(=O)c1cccnc1

>  <HIPPO Compound ID>  (563) 
2487

>  <HIPPO Pose ID>  (563) 
452165

>  <ref_pdb>  (563) 
A4351a

$$$$
C15044-P274
     RDKit          3D

 15 15  0  0  0  0  0  0  0  0999 V2000
   10.6232   15.1316   19.6635 N   0  0  0  0  0  0  0  0  0  0  0  0
   11.1665   15.4572   20.6335 C   0  0  0  0  0  0  0  0  0  0  0  0
   11.8727   15.8697   21.8511 C   0  0  0  0  0  0  0  0  0  0  0  0
   11.8976   14.7714   22.9136 C   0  0  0  0  0  0  0  0  0  0  0  0
   10.5984   14.6292   23.6951 C   0  0  0  0  0  0  0  0  0  0  0  0
    9.5165   14.2454   22.7901 N   0  0  0  0  0  0  0  0  0  0  0  0
    8.0606   13.7763   23.5000 S   0  0  0  0  0  0  0  0  0  0  0  0
    7.8768   14.5430   24.7125 O   0  0  0  0  0  0  0  0  0  0  0  0
    7.0774   13.6743   22.4442 O   0  0  0  0  0  0  0  0  0  0  0  0
    8.3474   12.1039   24.0124 C   0  0  0  0  0  0  0  0  0  0  0  0
    7.4961   11.5324   24.9427 C   0  0  0  0  0  0  0  0  0  0  0  0
    7.5957   10.1656   25.1093 C   0  0  0  0  0  0  0  0  0  0  0  0
    8.5222    9.4623   24.3423 C   0  0  0  0  0  0  0  0  0  0  0  0
    9.3477   10.1368   23.4625 C   0  0  0  0  0  0  0  0  0  0  0  0
    9.3034   11.4646   23.2894 N   0  0  0  0  0  0  0  0  0  0  0  0
  1  2  3  0
  2  3  1  0
  3  4  1  0
  4  5  1  0
  5  6  1  0
  6  7  1  0
  7  8  2  0
  7  9  2  0
  7 10  1  0
 10 11  2  0
 11 12  1  0
 12 13  2  0
 13 14  1  0
 14 15  2  0
 15 10  1  0
M  END
>  <inchikey>  (564) 
GWGHKZDVFZVLKE-UHFFFAOYSA-N

>  <energy_score>  (564) 
-26.8369

>  <subsites>  (564) 
1 - Active Site

>  <alias>  (564) 
C15044-P274

>  <tags>  (564) 
openbind_a71ev2a_c1_scaffolds,BulkDock Fragalysis export,openbind_a71ev2a_c1_knitwork_impure,fragmenstein_placed

>  <distance_score>  (564) 
0.969291

>  <placement_batch>  (564) 
openbind_a71ev2a_c1_knitwork_impure

>  <name>  (564) 
C15044-P274

>  <ref_mols>  (564) 
A4031a,A0719a

>  <smiles>  (564) 
N#CCCCNS(=O)(=O)c1ccccn1

>  <HIPPO Compound ID>  (564) 
82666

>  <HIPPO Pose ID>  (564) 
452171

>  <ref_pdb>  (564) 
A4351a

$$$$
C15048-P274
     RDKit          3D

 16 16  0  0  0  0  0  0  0  0999 V2000
    6.8157   14.9973   27.3166 C   0  0  0  0  0  0  0  0  0  0  0  0
    8.0039   14.8119   26.3853 C   0  0  0  0  0  0  0  0  0  0  0  0
    7.8036   13.9354   25.1233 C   0  0  2  0  0  0  0  0  0  0  0  0
    6.8238   14.6136   24.2449 N   0  0  0  0  0  0  0  0  0  0  0  0
    7.1909   14.5369   22.6042 S   0  0  0  0  0  0  0  0  0  0  0  0
    8.3227   15.4059   22.4047 O   0  0  0  0  0  0  0  0  0  0  0  0
    7.1951   13.1628   22.1736 O   0  0  0  0  0  0  0  0  0  0  0  0
    5.8123   15.2768   22.0148 N   0  0  0  0  0  0  0  0  0  0  0  0
    5.6290   16.6723   22.4136 C   0  0  0  0  0  0  0  0  0  0  0  0
    4.5708   14.4856   22.0588 C   0  0  0  0  0  0  0  0  0  0  0  0
    7.4743   12.4668   25.3309 C   0  0  0  0  0  0  0  0  0  0  0  0
    8.2370   11.5093   24.6466 C   0  0  0  0  0  0  0  0  0  0  0  0
    7.9306   10.1631   24.7764 C   0  0  0  0  0  0  0  0  0  0  0  0
    6.9374    9.6956   25.5598 N   0  0  0  0  0  0  0  0  0  0  0  0
    6.1884   10.6237   26.1858 C   0  0  0  0  0  0  0  0  0  0  0  0
    6.3998   11.9945   26.0892 C   0  0  0  0  0  0  0  0  0  0  0  0
  1  2  1  0
  3  2  1  1
  3  4  1  0
  4  5  1  0
  5  6  2  0
  5  7  2  0
  5  8  1  0
  8  9  1  0
  8 10  1  0
  3 11  1  0
 11 12  2  0
 12 13  1  0
 13 14  2  0
 14 15  1  0
 15 16  2  0
 16 11  1  0
M  END
>  <inchikey>  (565) 
OORLBSFUVZGRGR-UHFFFAOYSA-N

>  <energy_score>  (565) 
-31.976839

>  <subsites>  (565) 
1 - Active Site

>  <alias>  (565) 
C15048-P274

>  <tags>  (565) 
openbind_a71ev2a_c1_scaffolds,BulkDock Fragalysis export,openbind_a71ev2a_c1_knitwork_impure,fragmenstein_placed

>  <distance_score>  (565) 
0.817597

>  <placement_batch>  (565) 
openbind_a71ev2a_c1_knitwork_impure

>  <name>  (565) 
C15048-P274

>  <ref_mols>  (565) 
A4031a,A0719a

>  <smiles>  (565) 
CC[C@H](NS(=O)(=O)N(C)C)c1ccncc1

>  <HIPPO Compound ID>  (565) 
13636

>  <HIPPO Pose ID>  (565) 
452174

>  <ref_pdb>  (565) 
A4351a

$$$$
C15065-P274
     RDKit          3D

 13 13  0  0  0  0  0  0  0  0999 V2000
   11.6492   14.8973   22.8482 C   0  0  0  0  0  0  0  0  0  0  0  0
   10.5694   15.0903   23.7540 O   0  0  0  0  0  0  0  0  0  0  0  0
    9.3028   14.7607   23.1694 C   0  0  0  0  0  0  0  0  0  0  0  0
    8.8604   13.3704   23.6370 C   0  0  2  0  0  0  0  0  0  0  0  0
    7.9789   12.7945   22.6769 O   0  0  0  0  0  0  0  0  0  0  0  0
    8.1430   13.4201   24.9836 C   0  0  0  0  0  0  0  0  0  0  0  0
    8.1534   14.4022   25.7229 O   0  0  0  0  0  0  0  0  0  0  0  0
    7.3902   12.2287   25.4540 C   0  0  0  0  0  0  0  0  0  0  0  0
    6.3208   12.4242   26.3310 C   0  0  0  0  0  0  0  0  0  0  0  0
    5.6173   11.3292   26.8164 C   0  0  0  0  0  0  0  0  0  0  0  0
    6.0052   10.0683   26.4021 C   0  0  0  0  0  0  0  0  0  0  0  0
    7.0406    9.8347   25.5672 N   0  0  0  0  0  0  0  0  0  0  0  0
    7.7171   10.9213   25.1173 C   0  0  0  0  0  0  0  0  0  0  0  0
  1  2  1  0
  2  3  1  0
  3  4  1  0
  4  5  1  6
  4  6  1  0
  6  7  2  0
  6  8  1  0
  8  9  2  0
  9 10  1  0
 10 11  2  0
 11 12  1  0
 12 13  2  0
 13  8  1  0
M  END
>  <inchikey>  (566) 
FCBYOGTWIGJNNJ-UHFFFAOYSA-N

>  <energy_score>  (566) 
-15.970405

>  <subsites>  (566) 
1 - Active Site

>  <alias>  (566) 
C15065-P274

>  <tags>  (566) 
openbind_a71ev2a_c1_scaffolds,BulkDock Fragalysis export,openbind_a71ev2a_c1_knitwork_impure,fragmenstein_placed

>  <distance_score>  (566) 
0.90796

>  <placement_batch>  (566) 
openbind_a71ev2a_c1_knitwork_impure

>  <name>  (566) 
C15065-P274

>  <ref_mols>  (566) 
A4031a,A0719a

>  <smiles>  (566) 
COC[C@H](O)C(=O)c1cccnc1

>  <HIPPO Compound ID>  (566) 
10690

>  <HIPPO Pose ID>  (566) 
452189

>  <ref_pdb>  (566) 
A4351a

$$$$
C15067-P274
     RDKit          3D

 15 15  0  0  0  0  0  0  0  0999 V2000
   11.3106   15.3070   20.4733 C   0  0  0  0  0  0  0  0  0  0  0  0
   11.7176   15.8176   21.8520 C   0  0  0  0  0  0  0  0  0  0  0  0
   11.7708   14.7272   22.9240 C   0  0  0  0  0  0  0  0  0  0  0  0
   10.5375   14.5019   23.6137 O   0  0  0  0  0  0  0  0  0  0  0  0
    9.5033   14.0853   22.7475 C   0  0  0  0  0  0  0  0  0  0  0  0
    8.3793   13.2850   23.3730 C   0  0  0  0  0  0  0  0  0  0  0  0
    7.4947   12.8180   22.6456 O   0  0  0  0  0  0  0  0  0  0  0  0
    8.3155   13.1980   24.8874 C   0  0  1  0  0  0  0  0  0  0  0  0
    7.8342   14.4649   25.3474 O   0  0  0  0  0  0  0  0  0  0  0  0
    7.4458   12.0781   25.4213 C   0  0  0  0  0  0  0  0  0  0  0  0
    6.4563   12.3061   26.3880 C   0  0  0  0  0  0  0  0  0  0  0  0
    5.7048   11.2507   26.8853 C   0  0  0  0  0  0  0  0  0  0  0  0
    5.9722    9.9839   26.4092 C   0  0  0  0  0  0  0  0  0  0  0  0
    6.9265    9.7068   25.4989 N   0  0  0  0  0  0  0  0  0  0  0  0
    7.6376   10.7559   25.0209 C   0  0  0  0  0  0  0  0  0  0  0  0
  1  2  1  0
  2  3  1  0
  3  4  1  0
  4  5  1  0
  5  6  1  0
  6  7  2  0
  6  8  1  0
  8  9  1  1
  8 10  1  0
 10 11  2  0
 11 12  1  0
 12 13  2  0
 13 14  1  0
 14 15  2  0
 15 10  1  0
M  END
>  <inchikey>  (567) 
WUBOLPOQHKSMNV-UHFFFAOYSA-N

>  <energy_score>  (567) 
-17.579004

>  <subsites>  (567) 
1 - Active Site

>  <alias>  (567) 
C15067-P274

>  <tags>  (567) 
openbind_a71ev2a_c1_scaffolds,BulkDock Fragalysis export,openbind_a71ev2a_c1_knitwork_impure,fragmenstein_placed

>  <distance_score>  (567) 
0.897279

>  <placement_batch>  (567) 
openbind_a71ev2a_c1_knitwork_impure

>  <name>  (567) 
C15067-P274

>  <ref_mols>  (567) 
A4031a,A0719a

>  <smiles>  (567) 
CCCOCC(=O)[C@@H](O)c1cccnc1

>  <HIPPO Compound ID>  (567) 
2123

>  <HIPPO Pose ID>  (567) 
452190

>  <ref_pdb>  (567) 
A4351a

$$$$
C8155-P274
     RDKit          3D

 16 16  0  0  0  0  0  0  0  0999 V2000
   10.5908   15.3768   18.7062 C   0  0  0  0  0  0  0  0  0  0  0  0
   10.8261   15.7323   20.1317 C   0  0  0  0  0  0  0  0  0  0  0  0
   11.5430   14.9425   20.9374 C   0  0  0  0  0  0  0  0  0  0  0  0
   12.0328   15.3308   22.2279 C   0  0  0  0  0  0  0  0  0  0  0  0
   11.4306   15.3113   23.4231 C   0  0  0  0  0  0  0  0  0  0  0  0
   10.0576   14.9606   23.8776 C   0  0  0  0  0  0  0  0  0  0  0  0
    9.2995   14.3105   22.8289 N   0  0  0  0  0  0  0  0  0  0  0  0
    7.8727   13.6148   23.2858 S   0  0  0  0  0  0  0  0  0  0  0  0
    7.3701   14.3430   24.4233 O   0  0  0  0  0  0  0  0  0  0  0  0
    7.1098   13.3964   22.0821 O   0  0  0  0  0  0  0  0  0  0  0  0
    8.3483   12.1133   23.8048 N   0  0  0  0  0  0  0  0  0  0  0  0
    7.8280   11.6400   25.0798 C   0  0  0  0  0  0  0  0  0  0  0  0
    7.5591   10.1546   25.0254 C   0  0  0  0  0  0  0  0  0  0  0  0
    8.4248    9.3674   24.0572 C   0  0  0  0  0  0  0  0  0  0  0  0
    9.6438   10.0421   23.4756 C   0  0  0  0  0  0  0  0  0  0  0  0
    9.6395   11.5604   23.4119 C   0  0  0  0  0  0  0  0  0  0  0  0
  1  2  1  0
  2  3  2  3
  3  4  1  0
  4  5  2  3
  5  6  1  0
  6  7  1  0
  7  8  1  0
  8  9  2  0
  8 10  2  0
  8 11  1  0
 11 12  1  0
 12 13  1  0
 13 14  1  0
 14 15  1  0
 15 16  1  0
 16 11  1  0
M  END
>  <inchikey>  (568) 
POMAHRVANROYCT-UHFFFAOYSA-N

>  <energy_score>  (568) 
-24.703721

>  <subsites>  (568) 
1 - Active Site

>  <alias>  (568) 
C8155-P274

>  <tags>  (568) 
openbind_a71ev2a_c1_scaffolds,BulkDock Fragalysis export,openbind_a71ev2a_c1_knitwork_impure,fragmenstein_placed

>  <distance_score>  (568) 
0.942229

>  <placement_batch>  (568) 
openbind_a71ev2a_c1_knitwork_impure

>  <name>  (568) 
C8155-P274

>  <ref_mols>  (568) 
A4031a,A0719a

>  <smiles>  (568) 
CC=CC=CCNS(=O)(=O)N1CCCCC1

>  <HIPPO Compound ID>  (568) 
86181

>  <HIPPO Pose ID>  (568) 
452212

>  <ref_pdb>  (568) 
A4351a

$$$$
C8176-P274
     RDKit          3D

 15 15  0  0  0  0  0  0  0  0999 V2000
    7.8044   15.0027   25.2589 C   0  0  0  0  0  0  0  0  0  0  0  0
    8.2472   13.6545   24.6806 C   0  0  2  0  0  0  0  0  0  0  0  0
    9.5016   13.3190   25.2794 O   0  0  0  0  0  0  0  0  0  0  0  0
    8.3727   13.7951   23.1312 C   0  0  0  0  0  0  0  0  0  0  0  0
    7.6246   13.1839   22.3565 O   0  0  0  0  0  0  0  0  0  0  0  0
    9.4149   14.7746   22.6254 C   0  0  0  0  0  0  0  0  0  0  0  0
   10.2947   15.1570   23.5994 F   0  0  0  0  0  0  0  0  0  0  0  0
   10.1607   14.2830   21.6103 F   0  0  0  0  0  0  0  0  0  0  0  0
    8.4390   16.3153   21.9657 Br  0  0  0  0  0  0  0  0  0  0  0  0
    7.2036   12.5364   25.0011 C   0  0  2  0  0  0  0  0  0  0  0  0
    6.4745   12.6572   26.3512 C   0  0  0  0  0  0  0  0  0  0  0  0
    5.5204   11.4930   26.5813 C   0  0  0  0  0  0  0  0  0  0  0  0
    6.1638   10.1389   26.3172 C   0  0  0  0  0  0  0  0  0  0  0  0
    6.8509   10.0656   25.0433 N   0  0  0  0  0  0  0  0  0  0  0  0
    7.8178   11.1368   24.8518 C   0  0  0  0  0  0  0  0  0  0  0  0
  2  1  1  1
  2  3  1  0
  2  4  1  0
  4  5  2  0
  4  6  1  0
  6  7  1  0
  6  8  1  0
  6  9  1  0
  2 10  1  0
 10 11  1  1
 11 12  1  0
 12 13  1  0
 13 14  1  0
 14 15  1  0
 15 10  1  0
M  END
>  <inchikey>  (569) 
JNUOHHGXTGSVRF-UHFFFAOYSA-N

>  <energy_score>  (569) 
-31.481515

>  <subsites>  (569) 
1 - Active Site

>  <alias>  (569) 
C8176-P274

>  <tags>  (569) 
openbind_a71ev2a_c1_scaffolds,BulkDock Fragalysis export,openbind_a71ev2a_c1_knitwork_impure,fragmenstein_placed

>  <distance_score>  (569) 
0.945686

>  <placement_batch>  (569) 
openbind_a71ev2a_c1_knitwork_impure

>  <name>  (569) 
C8176-P274

>  <ref_mols>  (569) 
A4031a,A0719a

>  <smiles>  (569) 
C[C@](O)(C(=O)C(F)(F)Br)[C@@H]1CCCNC1

>  <HIPPO Compound ID>  (569) 
748

>  <HIPPO Pose ID>  (569) 
452229

>  <ref_pdb>  (569) 
A4351a

$$$$
C10627-P252
     RDKit          3D

 13 13  0  0  0  0  0  0  0  0999 V2000
    8.8215   14.8272   25.9338 C   0  0  0  0  0  0  0  0  0  0  0  0
    8.3701   14.4150   24.5396 C   0  0  0  0  0  0  0  0  0  0  0  0
    6.8599   14.5874   24.2846 C   0  0  1  0  0  0  0  0  0  0  0  0
    6.3530   15.9427   24.7760 C   0  0  0  0  0  0  0  0  0  0  0  0
    6.5726   14.2850   22.8023 C   0  0  0  0  0  0  0  0  0  0  0  0
    7.0218   13.2599   22.2690 O   0  0  0  0  0  0  0  0  0  0  0  0
    5.6829   15.2015   21.9995 C   0  0  0  0  0  0  0  0  0  0  0  0
    3.9495   14.8100   22.3090 S   0  0  0  0  0  0  0  0  0  0  0  0
    3.4646   14.3677   20.7087 C   0  0  0  0  0  0  0  0  0  0  0  0
    2.5888   15.0686   20.0179 N   0  0  0  0  0  0  0  0  0  0  0  0
    2.4886   14.3846   18.8312 C   0  0  0  0  0  0  0  0  0  0  0  0
    3.3464   13.3152   18.8334 C   0  0  0  0  0  0  0  0  0  0  0  0
    3.9802   13.2917   20.0379 O   0  0  0  0  0  0  0  0  0  0  0  0
  1  2  1  0
  2  3  1  0
  3  4  1  6
  3  5  1  0
  5  6  2  0
  5  7  1  0
  7  8  1  0
  8  9  1  0
  9 10  2  0
 10 11  1  0
 11 12  2  0
 12 13  1  0
 13  9  1  0
M  END
>  <inchikey>  (570) 
JPQPMWWMNLJLFA-UHFFFAOYSA-N

>  <energy_score>  (570) 
-24.837037

>  <subsites>  (570) 
1 - Active Site

>  <alias>  (570) 
C10627-P252

>  <tags>  (570) 
openbind_a71ev2a_c1_scaffolds,BulkDock Fragalysis export,openbind_a71ev2a_c1_knitwork_impure,fragmenstein_placed

>  <distance_score>  (570) 
0.74501

>  <placement_batch>  (570) 
openbind_a71ev2a_c1_knitwork_impure

>  <name>  (570) 
C10627-P252

>  <ref_mols>  (570) 
A3623a,A3975a

>  <smiles>  (570) 
CC[C@@H](C)C(=O)CSc1ncco1

>  <HIPPO Compound ID>  (570) 
5404

>  <HIPPO Pose ID>  (570) 
452373

>  <ref_pdb>  (570) 
A4351a

$$$$
C8161-P228
     RDKit          3D

 17 17  0  0  0  0  0  0  0  0999 V2000
    9.3853   14.5897   26.0107 C   0  0  0  0  0  0  0  0  0  0  0  0
   10.0368   13.7557   24.9024 C   0  0  0  0  0  0  0  0  0  0  0  0
    9.4139   13.9337   23.4752 C   0  0  1  0  0  0  0  0  0  0  0  0
   10.1499   13.0272   22.4909 C   0  0  0  0  0  0  0  0  0  0  0  0
    7.8716   13.4976   23.5534 C   0  0  1  0  0  0  0  0  0  0  0  0
    7.2259   13.4899   22.2663 O   0  0  0  0  0  0  0  0  0  0  0  0
    7.5725   12.1115   24.2069 C   0  0  0  0  0  0  0  0  0  0  0  0
    8.0847   11.0347   23.4184 O   0  0  0  0  0  0  0  0  0  0  0  0
    8.6031    9.9062   24.0994 C   0  0  0  0  0  0  0  0  0  0  0  0
    8.9590    8.8004   23.1245 C   0  0  0  0  0  0  0  0  0  0  0  0
    9.8811   10.2926   24.7754 C   0  0  0  0  0  0  0  0  0  0  0  0
    9.5781   15.3688   23.0422 N   0  0  0  0  0  0  0  0  0  0  0  0
   10.8129   16.0589   23.4551 C   0  0  0  0  0  0  0  0  0  0  0  0
   12.0304   15.7554   22.5989 C   0  0  0  0  0  0  0  0  0  0  0  0
   11.7855   16.2323   21.1874 C   0  0  0  0  0  0  0  0  0  0  0  0
   10.4983   15.6549   20.6320 C   0  0  0  0  0  0  0  0  0  0  0  0
    9.3182   15.7225   21.6231 C   0  0  0  0  0  0  0  0  0  0  0  0
  1  2  1  0
  2  3  1  0
  3  4  1  6
  3  5  1  0
  5  6  1  6
  5  7  1  0
  7  8  1  0
  8  9  1  0
  9 10  1  0
  9 11  1  0
  3 12  1  0
 12 13  1  0
 13 14  1  0
 14 15  1  0
 15 16  1  0
 16 17  1  0
 17 12  1  0
M  END
>  <inchikey>  (571) 
UYZNFIDKOOLBFF-UHFFFAOYSA-N

>  <energy_score>  (571) 
-34.605312

>  <subsites>  (571) 
1 - Active Site

>  <alias>  (571) 
C8161-P228

>  <tags>  (571) 
openbind_a71ev2a_c1_scaffolds,BulkDock Fragalysis export,openbind_a71ev2a_c1_knitwork_impure,fragmenstein_placed

>  <distance_score>  (571) 
0.921386

>  <placement_batch>  (571) 
openbind_a71ev2a_c1_knitwork_impure

>  <name>  (571) 
C8161-P228

>  <ref_mols>  (571) 
A3868a,A0719a

>  <smiles>  (571) 
CC[C@@](C)([C@@H](O)COC(C)C)N1CCCCC1

>  <HIPPO Compound ID>  (571) 
82412

>  <HIPPO Pose ID>  (571) 
452704

>  <ref_pdb>  (571) 
A4351a

$$$$
C8176-P228
     RDKit          3D

 15 15  0  0  0  0  0  0  0  0999 V2000
    7.4306   14.2794   22.4428 C   0  0  0  0  0  0  0  0  0  0  0  0
    8.1461   13.8988   23.7598 C   0  0  2  0  0  0  0  0  0  0  0  0
    7.9705   14.9695   24.7062 O   0  0  0  0  0  0  0  0  0  0  0  0
    9.6876   13.8226   23.5639 C   0  0  0  0  0  0  0  0  0  0  0  0
   10.3633   12.8532   23.9281 O   0  0  0  0  0  0  0  0  0  0  0  0
   10.3570   15.0913   23.0418 C   0  0  0  0  0  0  0  0  0  0  0  0
   11.0993   15.6956   24.0129 F   0  0  0  0  0  0  0  0  0  0  0  0
    9.4786   16.0392   22.6203 F   0  0  0  0  0  0  0  0  0  0  0  0
   11.4911   14.6510   21.5456 Br  0  0  0  0  0  0  0  0  0  0  0  0
    7.3924   12.6426   24.3128 C   0  0  1  0  0  0  0  0  0  0  0  0
    8.2002   11.4471   24.8175 C   0  0  0  0  0  0  0  0  0  0  0  0
    7.2517   10.3027   25.1534 C   0  0  0  0  0  0  0  0  0  0  0  0
    6.1057   10.7094   26.0723 C   0  0  0  0  0  0  0  0  0  0  0  0
    5.4227   11.9339   25.6781 N   0  0  0  0  0  0  0  0  0  0  0  0
    6.3570   13.0230   25.3967 C   0  0  0  0  0  0  0  0  0  0  0  0
  2  1  1  6
  2  3  1  0
  2  4  1  0
  4  5  2  0
  4  6  1  0
  6  7  1  0
  6  8  1  0
  6  9  1  0
  2 10  1  0
 10 11  1  1
 11 12  1  0
 12 13  1  0
 13 14  1  0
 14 15  1  0
 15 10  1  0
M  END
>  <inchikey>  (572) 
HZKRCMBVUHIKHS-UHFFFAOYSA-N

>  <energy_score>  (572) 
-16.571943

>  <subsites>  (572) 
1 - Active Site

>  <alias>  (572) 
C8176-P228

>  <tags>  (572) 
openbind_a71ev2a_c1_scaffolds,BulkDock Fragalysis export,openbind_a71ev2a_c1_knitwork_impure,fragmenstein_placed

>  <distance_score>  (572) 
0.987799

>  <placement_batch>  (572) 
openbind_a71ev2a_c1_knitwork_impure

>  <name>  (572) 
C8176-P228

>  <ref_mols>  (572) 
A3868a,A0719a

>  <smiles>  (572) 
C[C@](O)(C(=O)C(F)(F)Br)[C@H]1CCCNC1

>  <HIPPO Compound ID>  (572) 
86222

>  <HIPPO Pose ID>  (572) 
452714

>  <ref_pdb>  (572) 
A4351a

$$$$
C7073-P183
     RDKit          3D

 19 19  0  0  0  0  0  0  0  0999 V2000
   11.7179   14.9279   21.1717 C   0  0  0  0  0  0  0  0  0  0  0  0
   10.4816   15.5092   20.4919 C   0  0  2  0  0  0  0  0  0  0  0  0
    9.1361   15.4038   21.1759 C   0  0  0  0  0  0  0  0  0  0  0  0
    8.3529   16.2460   21.0062 O   0  0  0  0  0  0  0  0  0  0  0  0
    9.0933   14.1774   22.0956 N   0  0  0  0  0  0  0  0  0  0  0  0
    8.1225   13.7786   23.0687 C   0  0  0  0  0  0  0  0  0  0  0  0
    8.6821   12.9456   24.2392 C   0  0  0  0  0  0  0  0  0  0  0  0
    9.9531   13.6402   24.7839 C   0  0  0  0  0  0  0  0  0  0  0  0
    9.1441   11.5723   23.7055 C   0  0  0  0  0  0  0  0  0  0  0  0
    7.6380   12.8680   25.4440 C   0  0  0  0  0  0  0  0  0  0  0  0
    7.1795   11.4528   25.8269 C   0  0  0  0  0  0  0  0  0  0  0  0
    6.2084   11.4394   27.0078 C   0  0  0  0  0  0  0  0  0  0  0  0
    5.0627   12.3104   26.8056 N   0  0  0  0  0  0  0  0  0  0  0  0
    5.4899   13.6887   26.5714 C   0  0  0  0  0  0  0  0  0  0  0  0
    6.4347   13.8321   25.3772 C   0  0  0  0  0  0  0  0  0  0  0  0
   10.4119   15.2523   19.0097 C   0  0  0  0  0  0  0  0  0  0  0  0
   10.8287   14.0110   18.6882 F   0  0  0  0  0  0  0  0  0  0  0  0
   11.2171   16.0904   18.3381 F   0  0  0  0  0  0  0  0  0  0  0  0
    9.1861   15.4493   18.4984 F   0  0  0  0  0  0  0  0  0  0  0  0
  2  1  1  1
  2  3  1  0
  3  4  2  0
  3  5  1  0
  5  6  1  0
  6  7  1  0
  7  8  1  0
  7  9  1  0
  7 10  1  0
 10 11  1  0
 11 12  1  0
 12 13  1  0
 13 14  1  0
 14 15  1  0
  2 16  1  0
 16 17  1  0
 16 18  1  0
 16 19  1  0
 15 10  1  0
M  END
>  <inchikey>  (573) 
TYDVZPFYBLQFDI-UHFFFAOYSA-N

>  <energy_score>  (573) 
-16.616756

>  <subsites>  (573) 
1 - Active Site

>  <alias>  (573) 
C7073-P183

>  <tags>  (573) 
openbind_a71ev2a_c1_scaffolds,BulkDock Fragalysis export,openbind_a71ev2a_c1_knitwork_impure,fragmenstein_placed

>  <distance_score>  (573) 
0.996512

>  <placement_batch>  (573) 
openbind_a71ev2a_c1_knitwork_impure

>  <name>  (573) 
C7073-P183

>  <ref_mols>  (573) 
A3436a,A4320a

>  <smiles>  (573) 
C[C@H](C(=O)NCC(C)(C)C1CCNCC1)C(F)(F)F

>  <HIPPO Compound ID>  (573) 
91439

>  <HIPPO Pose ID>  (573) 
452782

>  <ref_pdb>  (573) 
A4351a

$$$$
C994-P158
     RDKit          3D

 24 27  0  0  0  0  0  0  0  0999 V2000
   19.4327   12.7643    3.4799 O   0  0  0  0  0  0  0  0  0  0  0  0
   19.6360   13.7554    2.8972 C   0  0  0  0  0  0  0  0  0  0  0  0
   18.5177   14.5480    2.2039 C   0  0  0  0  0  0  0  0  0  0  0  0
   18.4429   16.0018    2.6108 C   0  0  0  0  0  0  0  0  0  0  0  0
   17.9982   16.3595    3.8835 C   0  0  0  0  0  0  0  0  0  0  0  0
   17.9982   17.6989    4.2853 C   0  0  0  0  0  0  0  0  0  0  0  0
   18.4161   18.7394    3.4345 C   0  0  0  0  0  0  0  0  0  0  0  0
   18.4140   20.2504    3.9202 C   0  0  0  0  0  0  0  0  0  0  0  0
   19.7098   21.0960    3.7584 C   0  0  0  0  0  0  0  0  0  0  0  0
   18.7996   22.3169    3.5165 C   0  0  0  0  0  0  0  0  0  0  0  0
   17.7174   21.3273    3.0398 C   0  0  0  0  0  0  0  0  0  0  0  0
   18.8274   18.3526    2.1448 C   0  0  0  0  0  0  0  0  0  0  0  0
   18.8409   17.0149    1.7345 C   0  0  0  0  0  0  0  0  0  0  0  0
   20.9673   14.4796    2.5846 N   0  0  0  0  0  0  0  0  0  0  0  0
   22.3231   14.0878    2.8401 C   0  0  0  0  0  0  0  0  0  0  0  0
   22.8663   13.5400    1.5725 C   0  0  0  0  0  0  0  0  0  0  0  0
   22.3202   13.6265    0.3713 N   0  0  0  0  0  0  0  0  0  0  0  0
   23.1362   12.9804   -0.5237 N   0  0  0  0  0  0  0  0  0  0  0  0
   24.1745   12.5261    0.1402 C   0  0  0  0  0  0  0  0  0  0  0  0
   24.0510   12.8698    1.4591 N   0  0  0  0  0  0  0  0  0  0  0  0
   25.0708   12.6601    2.4626 C   0  0  0  0  0  0  0  0  0  0  0  0
   26.1709   11.7004    2.0017 C   0  0  0  0  0  0  0  0  0  0  0  0
   26.5496   11.9350    0.5370 C   0  0  0  0  0  0  0  0  0  0  0  0
   25.3336   11.7584   -0.3743 C   0  0  0  0  0  0  0  0  0  0  0  0
  1  2  2  0
  2  3  1  0
  3  4  1  0
  4  5  2  0
  5  6  1  0
  6  7  2  0
  7  8  1  0
  8  9  1  0
  9 10  1  0
 10 11  1  0
  7 12  1  0
 12 13  2  0
  2 14  1  0
 14 15  1  0
 15 16  1  0
 16 17  2  0
 17 18  1  0
 18 19  2  0
 19 20  1  0
 20 21  1  0
 21 22  1  0
 22 23  1  0
 23 24  1  0
 13  4  1  0
 20 16  1  0
 11  8  1  0
 24 19  1  0
M  END
>  <inchikey>  (574) 
MFVZOPZOZQGRRS-UHFFFAOYSA-N

>  <energy_score>  (574) 
-25.103978

>  <subsites>  (574) 
6 - A0486/A/147/1,1 - Active Site

>  <alias>  (574) 
C994-P158

>  <tags>  (574) 
openbind_a71ev2a_c1_scaffolds,BulkDock Fragalysis export,openbind_a71ev2a_c1_knitwork_impure,fragmenstein_placed

>  <distance_score>  (574) 
0.483632

>  <placement_batch>  (574) 
openbind_a71ev2a_c1_knitwork_impure

>  <name>  (574) 
C994-P158

>  <ref_mols>  (574) 
A0239a,A3222a

>  <smiles>  (574) 
O=C(Cc1ccc(C2CCC2)cc1)NCc1nnc2n1CCCC2

>  <HIPPO Compound ID>  (574) 
17086

>  <HIPPO Pose ID>  (574) 
452834

>  <ref_pdb>  (574) 
A4351a

$$$$
C9394-P277
     RDKit          3D

 13 13  0  0  0  0  0  0  0  0999 V2000
    5.9125   10.8081   27.1953 C   0  0  0  0  0  0  0  0  0  0  0  0
    6.1417    9.9179   26.2212 C   0  0  0  0  0  0  0  0  0  0  0  0
    7.3538    9.7998   25.3503 C   0  0  0  0  0  0  0  0  0  0  0  0
    8.3504   10.7731   25.6345 O   0  0  0  0  0  0  0  0  0  0  0  0
    8.0609   12.0576   25.0730 C   0  0  0  0  0  0  0  0  0  0  0  0
    9.3657   12.6156   24.5102 C   0  0  1  0  0  0  0  0  0  0  0  0
    9.9012   11.6078   23.6376 O   0  0  0  0  0  0  0  0  0  0  0  0
    9.0765   13.9074   23.7267 C   0  0  0  0  0  0  0  0  0  0  0  0
   10.2357   14.7454   23.3960 N   0  0  0  0  0  0  0  0  0  0  0  0
   11.3357   14.0191   22.7588 C   0  0  0  0  0  0  0  0  0  0  0  0
   12.1586   15.1217   22.1130 C   0  0  0  0  0  0  0  0  0  0  0  0
   11.2007   16.2813   21.9187 C   0  0  0  0  0  0  0  0  0  0  0  0
    9.8607   15.7661   22.4037 C   0  0  0  0  0  0  0  0  0  0  0  0
  1  2  2  0
  2  3  1  0
  3  4  1  0
  4  5  1  0
  5  6  1  0
  6  7  1  6
  6  8  1  0
  8  9  1  0
  9 10  1  0
 10 11  1  0
 11 12  1  0
 12 13  1  0
 13  9  1  0
M  END
>  <inchikey>  (575) 
WQQLBSLYPKFCKZ-UHFFFAOYSA-N

>  <energy_score>  (575) 
-70.159193

>  <subsites>  (575) 
1 - Active Site

>  <alias>  (575) 
C9394-P277

>  <tags>  (575) 
openbind_a71ev2a_c1_scaffolds,BulkDock Fragalysis export,openbind_a71ev2a_c1_knitwork_impure,fragmenstein_placed

>  <distance_score>  (575) 
0.953871

>  <placement_batch>  (575) 
openbind_a71ev2a_c1_knitwork_impure

>  <name>  (575) 
C9394-P277

>  <ref_mols>  (575) 
A0719a,A4032b

>  <smiles>  (575) 
C=CCOC[C@@H](O)CN1CCCC1

>  <HIPPO Compound ID>  (575) 
9566

>  <HIPPO Pose ID>  (575) 
453272

>  <ref_pdb>  (575) 
A4351a

$$$$
C7646-P437
     RDKit          3D

 13 14  0  0  0  0  0  0  0  0999 V2000
    5.8946   15.8594   22.2713 N   0  0  0  0  0  0  0  0  0  0  0  0
    7.1288   14.7887   22.6730 S   0  0  0  0  0  0  0  0  0  0  0  0
    8.3585   15.4953   22.4044 O   0  0  0  0  0  0  0  0  0  0  0  0
    6.7771   13.5650   21.9888 O   0  0  0  0  0  0  0  0  0  0  0  0
    6.8284   14.7173   24.4365 C   0  0  0  0  0  0  0  0  0  0  0  0
    8.0236   14.2565   25.2613 C   0  0  0  0  0  0  0  0  0  0  0  0
    8.0398   12.7460   25.4871 C   0  0  0  0  0  0  0  0  0  0  0  0
    8.1271   12.0231   24.2291 N   0  0  0  0  0  0  0  0  0  0  0  0
    7.6395   10.6352   24.3489 C   0  0  0  0  0  0  0  0  0  0  0  0
    8.8541    9.8431   24.6758 C   0  0  1  0  0  0  0  0  0  0  0  0
    9.8065    9.3473   23.6274 C   0  0  0  0  0  0  0  0  0  0  0  0
   10.0322   10.6693   24.3126 C   0  0  1  0  0  0  0  0  0  0  0  0
    9.5209   11.9522   23.7336 C   0  0  0  0  0  0  0  0  0  0  0  0
  1  2  1  0
  2  3  2  0
  2  4  2  0
  2  5  1  0
  5  6  1  0
  6  7  1  0
  7  8  1  0
  8  9  1  0
 10  9  1  6
 10 11  1  0
 12 11  1  6
 12 13  1  0
 13  8  1  0
 12 10  1  0
M  END
>  <inchikey>  (576) 
UDMHBJKMQVXFEZ-UHFFFAOYSA-N

>  <energy_score>  (576) 
-37.600067

>  <subsites>  (576) 
1 - Active Site

>  <alias>  (576) 
C7646-P437

>  <tags>  (576) 
openbind_a71ev2a_c1_scaffolds,BulkDock Fragalysis export,openbind_a71ev2a_c1_knitwork_impure,fragmenstein_placed

>  <distance_score>  (576) 
0.916007

>  <placement_batch>  (576) 
openbind_a71ev2a_c1_knitwork_impure

>  <name>  (576) 
C7646-P437

>  <ref_mols>  (576) 
A0719a,A4701a

>  <smiles>  (576) 
NS(=O)(=O)CCCN1C[C@H]2C[C@H]2C1

>  <HIPPO Compound ID>  (576) 
15184

>  <HIPPO Pose ID>  (576) 
454134

>  <ref_pdb>  (576) 
A4351a

$$$$
C4791-P317
     RDKit          3D

  9 10  0  0  0  0  0  0  0  0999 V2000
    8.4553   14.6310   24.7975 C   0  0  0  0  0  0  0  0  0  0  0  0
    8.8348   13.4325   24.3166 C   0  0  0  0  0  0  0  0  0  0  0  0
    8.4916   11.9715   24.6457 C   0  0  0  0  0  0  0  0  0  0  0  0
    7.5114   11.5447   25.5550 C   0  0  0  0  0  0  0  0  0  0  0  0
    7.5630   10.1720   25.4907 C   0  0  0  0  0  0  0  0  0  0  0  0
    8.5488    9.8689   24.5911 N   0  0  0  0  0  0  0  0  0  0  0  0
    9.1157   10.9567   24.0533 N   0  0  0  0  0  0  0  0  0  0  0  0
    9.7204   14.0304   23.2462 C   0  0  0  0  0  0  0  0  0  0  0  0
    9.3459   15.3988   23.8449 C   0  0  0  0  0  0  0  0  0  0  0  0
  1  2  2  0
  2  3  1  0
  3  4  1  0
  4  5  2  0
  5  6  1  0
  6  7  1  0
  2  8  1  0
  8  9  1  0
  9  1  1  0
  7  3  2  0
M  END
>  <inchikey>  (577) 
SXQLOIUOKJFCTE-UHFFFAOYSA-N

>  <energy_score>  (577) 
-15.220533

>  <subsites>  (577) 
1 - Active Site

>  <alias>  (577) 
C4791-P317

>  <tags>  (577) 
openbind_a71ev2a_c1_scaffolds,BulkDock Fragalysis export,openbind_a71ev2a_c1_knitwork_impure,fragmenstein_placed

>  <distance_score>  (577) 
0.953409

>  <placement_batch>  (577) 
openbind_a71ev2a_c1_knitwork_impure

>  <name>  (577) 
C4791-P317

>  <ref_mols>  (577) 
A0556a,A4343b

>  <smiles>  (577) 
C1=C(c2cc[nH]n2)CC1

>  <HIPPO Compound ID>  (577) 
6035

>  <HIPPO Pose ID>  (577) 
454296

>  <ref_pdb>  (577) 
A4351a

$$$$
C4142-P136
     RDKit          3D

 21 23  0  0  0  0  0  0  0  0999 V2000
    7.9948   19.5984   19.3562 C   0  0  0  0  0  0  0  0  0  0  0  0
    8.9186   18.4357   19.2852 C   0  0  0  0  0  0  0  0  0  0  0  0
    9.1462   17.7241   20.5888 C   0  0  0  0  0  0  0  0  0  0  0  0
   10.0516   16.5931   20.3333 C   0  0  0  0  0  0  0  0  0  0  0  0
   10.1937   15.8754   19.2404 N   0  0  0  0  0  0  0  0  0  0  0  0
   11.1386   14.9547   19.5848 C   0  0  0  0  0  0  0  0  0  0  0  0
   11.4711   15.1063   20.9085 C   0  0  0  0  0  0  0  0  0  0  0  0
   12.2594   14.3323   21.8823 C   0  0  0  0  0  0  0  0  0  0  0  0
   11.7952   14.4184   23.2916 N   0  0  0  0  0  0  0  0  0  0  0  0
   10.3374   14.2480   23.5175 C   0  0  0  0  0  0  0  0  0  0  0  0
    9.6290   13.1024   22.8004 C   0  0  0  0  0  0  0  0  0  0  0  0
    9.6863   11.7661   23.5164 C   0  0  0  0  0  0  0  0  0  0  0  0
    8.5969   11.5761   24.5514 C   0  0  0  0  0  0  0  0  0  0  0  0
    8.0657   10.2807   24.6831 C   0  0  0  0  0  0  0  0  0  0  0  0
    7.0152   10.0188   25.5588 C   0  0  0  0  0  0  0  0  0  0  0  0
    6.4721   11.0390   26.3225 C   0  0  0  0  0  0  0  0  0  0  0  0
    7.0065   12.3197   26.2305 C   0  0  0  0  0  0  0  0  0  0  0  0
    8.0918   12.6025   25.3751 C   0  0  0  0  0  0  0  0  0  0  0  0
    8.6126   14.0241   25.3863 C   0  0  0  0  0  0  0  0  0  0  0  0
   10.0943   14.1983   25.0358 C   0  0  0  0  0  0  0  0  0  0  0  0
   10.8355   16.2153   21.3690 O   0  0  0  0  0  0  0  0  0  0  0  0
  1  2  1  0
  2  3  1  0
  3  4  1  0
  4  5  2  0
  5  6  1  0
  6  7  2  0
  7  8  1  0
  8  9  1  0
  9 10  1  0
 10 11  1  0
 11 12  1  0
 12 13  1  0
 13 14  2  0
 14 15  1  0
 15 16  2  0
 16 17  1  0
 17 18  2  0
 18 19  1  0
 19 20  1  0
  7 21  1  0
 21  4  1  0
 20 10  1  0
 18 13  1  0
M  END
>  <inchikey>  (578) 
FGJMRRSNHUUVNO-UHFFFAOYSA-N

>  <energy_score>  (578) 
-35.144257

>  <subsites>  (578) 
1 - Active Site

>  <alias>  (578) 
C4142-P136

>  <tags>  (578) 
openbind_a71ev2a_c1_scaffolds,BulkDock Fragalysis export,openbind_a71ev2a_c1_knitwork_impure,fragmenstein_placed

>  <distance_score>  (578) 
0.720389

>  <placement_batch>  (578) 
openbind_a71ev2a_c1_knitwork_impure

>  <name>  (578) 
C4142-P136

>  <ref_mols>  (578) 
A2846a,A1778a

>  <smiles>  (578) 
CCCc1ncc(CNC2CCc3ccccc3CC2)o1

>  <HIPPO Compound ID>  (578) 
3119

>  <HIPPO Pose ID>  (578) 
454312

>  <ref_pdb>  (578) 
A4351a

$$$$
C7479-P173
     RDKit          3D

 23 24  0  0  0  0  0  0  0  0999 V2000
    3.5808   12.3625   18.2329 C   0  0  0  0  0  0  0  0  0  0  0  0
    3.4091   12.6086   19.7314 C   0  0  0  0  0  0  0  0  0  0  0  0
    2.3429   11.6742   20.3013 C   0  0  0  0  0  0  0  0  0  0  0  0
    3.0713   14.0218   20.0113 C   0  0  0  0  0  0  0  0  0  0  0  0
    2.1239   14.5735   19.1976 O   0  0  0  0  0  0  0  0  0  0  0  0
    2.0292   15.8519   19.6166 C   0  0  0  0  0  0  0  0  0  0  0  0
    2.8105   16.1702   20.6267 N   0  0  0  0  0  0  0  0  0  0  0  0
    3.4516   14.9803   20.9359 C   0  0  0  0  0  0  0  0  0  0  0  0
    4.3524   14.8767   22.1288 C   0  0  0  0  0  0  0  0  0  0  0  0
    5.6264   15.5074   21.8215 N   0  0  0  0  0  0  0  0  0  0  0  0
    7.0316   14.7144   22.2508 S   0  0  0  0  0  0  0  0  0  0  0  0
    6.7843   13.3422   21.8363 O   0  0  0  0  0  0  0  0  0  0  0  0
    8.0179   15.4165   21.4567 O   0  0  0  0  0  0  0  0  0  0  0  0
    6.9893   14.9505   23.7640 N   0  0  0  0  0  0  0  0  0  0  0  0
    8.3390   14.6178   24.4259 S   0  0  2  0  0  0  0  0  0  0  0  0
    8.1775   15.1658   26.1132 C   0  0  0  0  0  0  0  0  0  0  0  0
    9.6125   15.1460   23.9823 O   0  0  0  0  0  0  0  0  0  0  0  0
    8.5771   12.8313   24.6255 C   0  0  0  0  0  0  0  0  0  0  0  0
    9.4078   12.2526   23.4864 C   0  0  0  0  0  0  0  0  0  0  0  0
    9.5358   10.7338   23.4503 C   0  0  0  0  0  0  0  0  0  0  0  0
    8.4322    9.9048   24.0789 C   0  0  0  0  0  0  0  0  0  0  0  0
    7.5159   10.5912   25.0757 C   0  0  0  0  0  0  0  0  0  0  0  0
    7.2799   12.0722   24.8457 C   0  0  0  0  0  0  0  0  0  0  0  0
  1  2  1  0
  2  3  1  0
  2  4  1  0
  4  5  1  0
  5  6  1  0
  6  7  2  0
  7  8  1  0
  8  9  1  0
  9 10  1  0
 10 11  1  0
 11 12  2  0
 11 13  2  0
 11 14  1  0
 14 15  2  0
 15 16  1  1
 15 17  2  0
 15 18  1  0
 18 19  1  0
 19 20  1  0
 20 21  1  0
 21 22  1  0
 22 23  1  0
  8  4  2  0
 23 18  1  0
M  END
>  <inchikey>  (579) 
QLCVGBHOPHCWJD-UHFFFAOYSA-N

>  <energy_score>  (579) 
-235.30746

>  <subsites>  (579) 
1 - Active Site

>  <alias>  (579) 
C7479-P173

>  <tags>  (579) 
openbind_a71ev2a_c1_scaffolds,BulkDock Fragalysis export,openbind_a71ev2a_c1_knitwork_impure,fragmenstein_placed

>  <distance_score>  (579) 
0.89834

>  <placement_batch>  (579) 
openbind_a71ev2a_c1_knitwork_impure

>  <name>  (579) 
C7479-P173

>  <ref_mols>  (579) 
A3623a,A3587a

>  <smiles>  (579) 
CC(C)c1ocnc1CNS(=O)(=O)N=[S@](C)(=O)C1CCCCC1

>  <HIPPO Compound ID>  (579) 
10549

>  <HIPPO Pose ID>  (579) 
454623

>  <ref_pdb>  (579) 
A4351a

$$$$
C1392-P283
     RDKit          3D

 17 17  0  0  0  0  0  0  0  0999 V2000
    9.6461   11.7018   23.5501 C   0  0  0  0  0  0  0  0  0  0  0  0
    8.6657   12.7570   24.0953 C   0  0  0  0  0  0  0  0  0  0  0  0
    9.4101   13.6234   25.1296 C   0  0  0  0  0  0  0  0  0  0  0  0
    8.1642   13.5841   22.8503 C   0  0  0  0  0  0  0  0  0  0  0  0
    7.1165   13.3787   22.3843 O   0  0  0  0  0  0  0  0  0  0  0  0
    9.2700   14.5674   22.4244 N   0  0  0  0  0  0  0  0  0  0  0  0
    9.2819   15.5749   21.3898 C   0  0  0  0  0  0  0  0  0  0  0  0
   10.5843   15.7646   20.6361 C   0  0  0  0  0  0  0  0  0  0  0  0
   11.6448   15.7283   21.4771 F   0  0  0  0  0  0  0  0  0  0  0  0
   10.7688   14.8472   19.6728 F   0  0  0  0  0  0  0  0  0  0  0  0
   10.5566   16.9796   20.0504 F   0  0  0  0  0  0  0  0  0  0  0  0
    7.3957   12.0861   24.7556 C   0  0  2  0  0  0  0  0  0  0  0  0
    6.6094   13.0341   25.6849 C   0  0  0  0  0  0  0  0  0  0  0  0
    5.3403   12.3702   26.2114 C   0  0  0  0  0  0  0  0  0  0  0  0
    5.6013   10.9796   26.7730 C   0  0  0  0  0  0  0  0  0  0  0  0
    6.3703   10.1393   25.8679 N   0  0  0  0  0  0  0  0  0  0  0  0
    7.6311   10.7395   25.4464 C   0  0  0  0  0  0  0  0  0  0  0  0
  1  2  1  0
  2  3  1  0
  2  4  1  0
  4  5  2  0
  4  6  1  0
  6  7  1  0
  7  8  1  0
  8  9  1  0
  8 10  1  0
  8 11  1  0
 12  2  1  1
 12 13  1  0
 13 14  1  0
 14 15  1  0
 15 16  1  0
 16 17  1  0
 17 12  1  0
M  END
>  <inchikey>  (580) 
NWUVTHIOIUIXCU-UHFFFAOYSA-N

>  <energy_score>  (580) 
-8.377713

>  <subsites>  (580) 
1 - Active Site

>  <alias>  (580) 
C1392-P283

>  <tags>  (580) 
openbind_a71ev2a_c1_scaffolds,BulkDock Fragalysis export,openbind_a71ev2a_c1_knitwork_impure,fragmenstein_placed

>  <distance_score>  (580) 
0.94618

>  <placement_batch>  (580) 
openbind_a71ev2a_c1_knitwork_impure

>  <name>  (580) 
C1392-P283

>  <ref_mols>  (580) 
A4291a,A3371a

>  <smiles>  (580) 
CC(C)(C(=O)NCC(F)(F)F)[C@@H]1CCCNC1

>  <HIPPO Compound ID>  (580) 
1375

>  <HIPPO Pose ID>  (580) 
455533

>  <ref_pdb>  (580) 
A5036b

$$$$
C4093-P283
     RDKit          3D

 11 12  0  0  0  0  0  0  0  0999 V2000
    8.5614    9.4456   24.4794 C   0  0  0  0  0  0  0  0  0  0  0  0
    8.8972   10.7530   24.2501 C   0  0  0  0  0  0  0  0  0  0  0  0
    7.9798   11.4724   24.9621 N   0  0  0  0  0  0  0  0  0  0  0  0
    7.1204   10.6016   25.5884 C   0  0  0  0  0  0  0  0  0  0  0  0
    6.0821   11.0104   26.3656 N   0  0  0  0  0  0  0  0  0  0  0  0
    5.0901    9.9810   26.7225 C   0  0  0  0  0  0  0  0  0  0  0  0
    3.8121   10.5869   27.3001 C   0  0  0  0  0  0  0  0  0  0  0  0
    4.1266   11.6277   28.3644 C   0  0  0  0  0  0  0  0  0  0  0  0
    5.1183   12.6801   27.8668 C   0  0  0  0  0  0  0  0  0  0  0  0
    5.6590   12.3999   26.4625 C   0  0  0  0  0  0  0  0  0  0  0  0
    7.4743    9.3648   25.3173 N   0  0  0  0  0  0  0  0  0  0  0  0
  1  2  2  0
  2  3  1  0
  3  4  1  0
  4  5  1  0
  5  6  1  0
  6  7  1  0
  7  8  1  0
  8  9  1  0
  9 10  1  0
  4 11  2  0
 11  1  1  0
 10  5  1  0
M  END
>  <inchikey>  (581) 
OLVLBHADGADCLT-UHFFFAOYSA-N

>  <energy_score>  (581) 
-16.931909

>  <subsites>  (581) 
1 - Active Site

>  <alias>  (581) 
C4093-P283

>  <tags>  (581) 
openbind_a71ev2a_c1_scaffolds,BulkDock Fragalysis export,openbind_a71ev2a_c1_knitwork_impure,fragmenstein_placed

>  <distance_score>  (581) 
0.834198

>  <placement_batch>  (581) 
openbind_a71ev2a_c1_knitwork_impure

>  <name>  (581) 
C4093-P283

>  <ref_mols>  (581) 
A4291a,A3371a

>  <smiles>  (581) 
c1c[nH]c(N2CCCCC2)n1

>  <HIPPO Compound ID>  (581) 
759

>  <HIPPO Pose ID>  (581) 
455559

>  <ref_pdb>  (581) 
A5036b

$$$$
C7139-P305
     RDKit          3D

 21 22  0  0  0  0  0  0  0  0999 V2000
    2.8614   12.4777   30.3518 C   0  0  0  0  0  0  0  0  0  0  0  0
    2.9697   10.9870   30.0298 C   0  0  2  0  0  0  0  0  0  0  0  0
    3.6675   10.6294   28.7117 C   0  0  0  0  0  0  0  0  0  0  0  0
    4.8135   11.5250   28.2667 C   0  0  0  0  0  0  0  0  0  0  0  0
    5.0074   12.5903   28.6939 O   0  0  0  0  0  0  0  0  0  0  0  0
    5.5208   10.7600   27.1230 N   0  0  0  0  0  0  0  0  0  0  0  0
    6.4847   11.1603   26.2658 C   0  0  0  0  0  0  0  0  0  0  0  0
    7.2659   10.4938   25.3659 C   0  0  0  0  0  0  0  0  0  0  0  0
    8.0301   11.5107   24.7396 C   0  0  0  0  0  0  0  0  0  0  0  0
    9.0430   11.4315   23.6338 C   0  0  0  0  0  0  0  0  0  0  0  0
    9.4581   10.0070   23.2567 C   0  0  0  0  0  0  0  0  0  0  0  0
   10.2938    9.3688   24.3395 C   0  0  0  0  0  0  0  0  0  0  0  0
   11.3876   10.2075   24.8298 N   0  0  0  0  0  0  0  0  0  0  0  0
   11.0263   11.6108   25.0888 C   0  0  0  0  0  0  0  0  0  0  0  0
   10.2895   12.2599   23.9379 C   0  0  0  0  0  0  0  0  0  0  0  0
    7.7563   12.7174   25.2504 N   0  0  0  0  0  0  0  0  0  0  0  0
    6.8143   12.4802   26.1640 N   0  0  0  0  0  0  0  0  0  0  0  0
    1.5659   10.4057   29.9861 C   0  0  0  0  0  0  0  0  0  0  0  0
    0.9510   10.5237   31.1784 F   0  0  0  0  0  0  0  0  0  0  0  0
    1.5941    9.0939   29.6642 F   0  0  0  0  0  0  0  0  0  0  0  0
    0.8117   11.0304   29.0542 F   0  0  0  0  0  0  0  0  0  0  0  0
  2  1  1  6
  2  3  1  0
  3  4  1  0
  4  5  2  0
  4  6  1  0
  6  7  1  0
  7  8  2  0
  8  9  1  0
  9 10  1  0
 10 11  1  0
 11 12  1  0
 12 13  1  0
 13 14  1  0
 14 15  1  0
  9 16  2  0
 16 17  1  0
  2 18  1  0
 18 19  1  0
 18 20  1  0
 18 21  1  0
 17  7  1  0
 15 10  1  0
M  END
>  <inchikey>  (582) 
NUBNQKVFZUNLSK-UHFFFAOYSA-N

>  <energy_score>  (582) 
-3.91446

>  <subsites>  (582) 
1 - Active Site

>  <alias>  (582) 
C7139-P305

>  <tags>  (582) 
openbind_a71ev2a_c1_scaffolds,BulkDock Fragalysis export,openbind_a71ev2a_c1_knitwork_impure,fragmenstein_placed

>  <distance_score>  (582) 
0.914816

>  <placement_batch>  (582) 
openbind_a71ev2a_c1_knitwork_impure

>  <name>  (582) 
C7139-P305

>  <ref_mols>  (582) 
A1445a,A4321b

>  <smiles>  (582) 
C[C@H](CC(=O)Nc1cc(C2CCNCC2)n[nH]1)C(F)(F)F

>  <HIPPO Compound ID>  (582) 
7139

>  <HIPPO Pose ID>  (582) 
455614

>  <ref_pdb>  (582) 
A5036b

$$$$
C38611-P550
     RDKit          3D

 13 13  0  0  0  0  0  0  0  0999 V2000
    6.3264   13.1437   26.0875 C   0  0  0  0  0  0  0  0  0  0  0  0
    6.9038   12.4268   24.8758 C   0  0  0  0  0  0  0  0  0  0  0  0
    7.0882   10.9426   25.1799 C   0  0  0  0  0  0  0  0  0  0  0  0
    8.2108   13.0063   24.3255 C   0  0  0  0  0  0  0  0  0  0  0  0
    9.1165   12.2467   23.9665 O   0  0  0  0  0  0  0  0  0  0  0  0
    8.3092   14.5282   24.1552 C   0  0  0  0  0  0  0  0  0  0  0  0
    9.4976   14.8687   23.3760 N   0  0  0  0  0  0  0  0  0  0  0  0
    9.3199   15.2030   21.9634 C   0  0  0  0  0  0  0  0  0  0  0  0
   10.5869   15.1219   21.1283 C   0  0  0  0  0  0  0  0  0  0  0  0
   11.7439   15.7595   21.8685 C   0  0  0  0  0  0  0  0  0  0  0  0
   11.9520   15.0221   23.1747 C   0  0  0  0  0  0  0  0  0  0  0  0
   10.7111   14.9543   24.0361 C   0  0  0  0  0  0  0  0  0  0  0  0
   10.8050   14.8784   25.2639 O   0  0  0  0  0  0  0  0  0  0  0  0
  1  2  1  0
  2  3  1  0
  2  4  1  0
  4  5  2  0
  4  6  1  0
  6  7  1  0
  7  8  1  0
  8  9  1  0
  9 10  1  0
 10 11  1  0
 11 12  1  0
 12 13  2  0
 12  7  1  0
M  END
>  <inchikey>  (583) 
KCHUUQFYYOTEQS-UHFFFAOYSA-N

>  <energy_score>  (583) 
-29.167677

>  <subsites>  (583) 
1 - Active Site

>  <alias>  (583) 
C38611-P550

>  <tags>  (583) 
openbind_a71ev2a_c1_scaffolds,BulkDock Fragalysis export,openbind_a71ev2a_c1_knitwork_impure,fragmenstein_placed

>  <distance_score>  (583) 
0.857822

>  <placement_batch>  (583) 
openbind_a71ev2a_c1_knitwork_impure

>  <name>  (583) 
C38611-P550

>  <ref_mols>  (583) 
A1775a,A5036a

>  <smiles>  (583) 
CC(C)C(=O)CN1CCCCC1=O

>  <HIPPO Compound ID>  (583) 
1883

>  <HIPPO Pose ID>  (583) 
456016

>  <ref_pdb>  (583) 
A5036b

$$$$
C38614-P550
     RDKit          3D

 13 13  0  0  0  0  0  0  0  0999 V2000
   10.3523   15.5290   19.8530 C   0  0  0  0  0  0  0  0  0  0  0  0
   10.8938   15.0679   21.1990 C   0  0  0  0  0  0  0  0  0  0  0  0
   12.1764   15.8225   21.5321 C   0  0  0  0  0  0  0  0  0  0  0  0
    9.8556   15.2662   22.1711 O   0  0  0  0  0  0  0  0  0  0  0  0
   10.3213   15.1205   23.5039 C   0  0  0  0  0  0  0  0  0  0  0  0
    9.1690   14.8213   24.4437 C   0  0  0  0  0  0  0  0  0  0  0  0
    8.3815   13.5566   24.1007 C   0  0  2  0  0  0  0  0  0  0  0  0
    7.2065   13.4521   25.0802 C   0  0  0  0  0  0  0  0  0  0  0  0
    6.4472   12.1694   24.8361 C   0  0  0  0  0  0  0  0  0  0  0  0
    7.3625   10.9742   24.9596 C   0  0  0  0  0  0  0  0  0  0  0  0
    8.5405   11.0987   24.1452 N   0  0  0  0  0  0  0  0  0  0  0  0
    9.2334   12.2834   24.0979 C   0  0  0  0  0  0  0  0  0  0  0  0
   10.4547   12.2516   23.9966 O   0  0  0  0  0  0  0  0  0  0  0  0
  1  2  1  0
  2  3  1  0
  2  4  1  0
  4  5  1  0
  5  6  1  0
  7  6  1  1
  7  8  1  0
  8  9  1  0
  9 10  1  0
 10 11  1  0
 11 12  1  0
 12 13  2  0
 12  7  1  0
M  END
>  <inchikey>  (584) 
LLBDRWNYPBEFLX-UHFFFAOYSA-N

>  <energy_score>  (584) 
-33.880214

>  <subsites>  (584) 
1 - Active Site

>  <alias>  (584) 
C38614-P550

>  <tags>  (584) 
openbind_a71ev2a_c1_scaffolds,BulkDock Fragalysis export,openbind_a71ev2a_c1_knitwork_impure,fragmenstein_placed

>  <distance_score>  (584) 
0.967316

>  <placement_batch>  (584) 
openbind_a71ev2a_c1_knitwork_impure

>  <name>  (584) 
C38614-P550

>  <ref_mols>  (584) 
A1775a,A5036a

>  <smiles>  (584) 
CC(C)OCC[C@@H]1CCCNC1=O

>  <HIPPO Compound ID>  (584) 
11851

>  <HIPPO Pose ID>  (584) 
456019

>  <ref_pdb>  (584) 
A5036b

$$$$
C38621-P550
     RDKit          3D

 12 12  0  0  0  0  0  0  0  0999 V2000
   10.8661   15.4553   19.4921 C   0  0  0  0  0  0  0  0  0  0  0  0
   11.1403   15.2542   20.9692 C   0  0  0  0  0  0  0  0  0  0  0  0
    9.8578   15.2074   21.7889 C   0  0  0  0  0  0  0  0  0  0  0  0
   10.2332   15.0483   23.1539 O   0  0  0  0  0  0  0  0  0  0  0  0
    9.1593   14.8890   24.0665 C   0  0  0  0  0  0  0  0  0  0  0  0
    8.4021   13.5725   23.9305 C   0  0  2  0  0  0  0  0  0  0  0  0
    7.2885   13.5157   24.9797 C   0  0  0  0  0  0  0  0  0  0  0  0
    6.5266   12.2148   24.8320 C   0  0  0  0  0  0  0  0  0  0  0  0
    7.4546   11.0242   24.9345 C   0  0  0  0  0  0  0  0  0  0  0  0
    8.6211   11.1436   24.0983 N   0  0  0  0  0  0  0  0  0  0  0  0
    9.3003   12.3419   24.0259 C   0  0  0  0  0  0  0  0  0  0  0  0
   10.5235   12.3394   23.9796 O   0  0  0  0  0  0  0  0  0  0  0  0
  1  2  1  0
  2  3  1  0
  3  4  1  0
  4  5  1  0
  6  5  1  1
  6  7  1  0
  7  8  1  0
  8  9  1  0
  9 10  1  0
 10 11  1  0
 11 12  2  0
 11  6  1  0
M  END
>  <inchikey>  (585) 
ZSANGZPGNFVAPL-UHFFFAOYSA-N

>  <energy_score>  (585) 
-18.3144

>  <subsites>  (585) 
1 - Active Site

>  <alias>  (585) 
C38621-P550

>  <tags>  (585) 
openbind_a71ev2a_c1_scaffolds,BulkDock Fragalysis export,openbind_a71ev2a_c1_knitwork_impure,fragmenstein_placed

>  <distance_score>  (585) 
0.833531

>  <placement_batch>  (585) 
openbind_a71ev2a_c1_knitwork_impure

>  <name>  (585) 
C38621-P550

>  <ref_mols>  (585) 
A1775a,A5036a

>  <smiles>  (585) 
CCCOC[C@@H]1CCCNC1=O

>  <HIPPO Compound ID>  (585) 
6044

>  <HIPPO Pose ID>  (585) 
456024

>  <ref_pdb>  (585) 
A5036b

$$$$
C2408-P441
     RDKit          3D

 15 15  0  0  0  0  0  0  0  0999 V2000
    5.3415   13.6566   27.8838 C   0  0  0  0  0  0  0  0  0  0  0  0
    6.6257   14.0754   27.1782 C   0  0  0  0  0  0  0  0  0  0  0  0
    6.8708   13.2833   25.8852 C   0  0  2  0  0  0  0  0  0  0  0  0
    7.0070   11.7831   26.1589 C   0  0  0  0  0  0  0  0  0  0  0  0
    8.1289   13.7914   25.1450 C   0  0  0  0  0  0  0  0  0  0  0  0
    8.9977   14.3778   25.8000 O   0  0  0  0  0  0  0  0  0  0  0  0
    8.3194   13.3938   23.6393 C   0  0  0  0  0  0  0  0  0  0  0  0
    6.9676   13.5332   22.9283 C   0  0  0  0  0  0  0  0  0  0  0  0
    8.8529   11.9429   23.6551 C   0  0  0  0  0  0  0  0  0  0  0  0
    9.3705   14.1411   22.9169 N   0  0  0  0  0  0  0  0  0  0  0  0
   10.6170   14.4167   23.6118 C   0  0  0  0  0  0  0  0  0  0  0  0
   11.7774   14.4570   22.6377 C   0  0  0  0  0  0  0  0  0  0  0  0
   11.5454   15.4482   21.5173 C   0  0  0  0  0  0  0  0  0  0  0  0
   10.2224   15.1692   20.8305 C   0  0  0  0  0  0  0  0  0  0  0  0
    9.0679   15.0664   21.8282 C   0  0  0  0  0  0  0  0  0  0  0  0
  1  2  1  0
  2  3  1  0
  3  4  1  1
  3  5  1  0
  5  6  2  0
  5  7  1  0
  7  8  1  0
  7  9  1  0
  7 10  1  0
 10 11  1  0
 11 12  1  0
 12 13  1  0
 13 14  1  0
 14 15  1  0
 15 10  1  0
M  END
>  <inchikey>  (586) 
HXNOWCAYKFJUHZ-UHFFFAOYSA-N

>  <energy_score>  (586) 
-49.465328

>  <subsites>  (586) 
1 - Active Site

>  <alias>  (586) 
C2408-P441

>  <tags>  (586) 
openbind_a71ev2a_c1_scaffolds,BulkDock Fragalysis export,openbind_a71ev2a_c1_knitwork_impure,fragmenstein_placed

>  <distance_score>  (586) 
0.996262

>  <placement_batch>  (586) 
openbind_a71ev2a_c1_knitwork_impure

>  <name>  (586) 
C2408-P441

>  <ref_mols>  (586) 
A4708a,A1779a

>  <smiles>  (586) 
CC[C@H](C)C(=O)C(C)(C)N1CCCCC1

>  <HIPPO Compound ID>  (586) 
15052

>  <HIPPO Pose ID>  (586) 
456052

>  <ref_pdb>  (586) 
A5036b

$$$$
C35850-P200
     RDKit          3D

 11 11  0  0  0  0  0  0  0  0999 V2000
    8.6103   14.8492   26.1868 C   0  0  0  0  0  0  0  0  0  0  0  0
    8.9734   14.6813   24.8280 O   0  0  0  0  0  0  0  0  0  0  0  0
   10.3058   14.1739   24.6289 C   0  0  0  0  0  0  0  0  0  0  0  0
   10.4634   13.7364   23.1426 C   0  0  1  0  0  0  0  0  0  0  0  0
   11.8262   14.1776   22.6193 C   0  0  0  0  0  0  0  0  0  0  0  0
   10.3811   12.2954   22.9846 N   0  0  0  0  0  0  0  0  0  0  0  0
    9.4745   11.5498   23.6146 C   0  0  0  0  0  0  0  0  0  0  0  0
    9.4771   10.2515   23.7532 N   0  0  0  0  0  0  0  0  0  0  0  0
    8.5017   10.0426   24.6789 C   0  0  0  0  0  0  0  0  0  0  0  0
    7.8682   11.2074   25.0007 C   0  0  0  0  0  0  0  0  0  0  0  0
    8.4683   12.1806   24.2831 O   0  0  0  0  0  0  0  0  0  0  0  0
  1  2  1  0
  2  3  1  0
  3  4  1  0
  4  5  1  1
  4  6  1  0
  6  7  1  0
  7  8  2  0
  8  9  1  0
  9 10  2  0
 10 11  1  0
 11  7  1  0
M  END
>  <inchikey>  (587) 
JXTZNDLJXPZAEM-UHFFFAOYSA-N

>  <energy_score>  (587) 
-14.344816

>  <subsites>  (587) 
1 - Active Site

>  <alias>  (587) 
C35850-P200

>  <tags>  (587) 
openbind_a71ev2a_c1_scaffolds,BulkDock Fragalysis export,openbind_a71ev2a_c1_knitwork_impure,fragmenstein_placed

>  <distance_score>  (587) 
0.758722

>  <placement_batch>  (587) 
openbind_a71ev2a_c1_knitwork_impure

>  <name>  (587) 
C35850-P200

>  <ref_mols>  (587) 
A3623a,A0310a

>  <smiles>  (587) 
COC[C@@H](C)Nc1ncco1

>  <HIPPO Compound ID>  (587) 
4118

>  <HIPPO Pose ID>  (587) 
456214

>  <ref_pdb>  (587) 
A5036b

$$$$
C35879-P37
     RDKit          3D

 12 12  0  0  0  0  0  0  0  0999 V2000
    8.5629   14.5772   25.6379 C   0  0  0  0  0  0  0  0  0  0  0  0
    9.1959   14.3234   24.3880 O   0  0  0  0  0  0  0  0  0  0  0  0
   10.5176   13.7922   24.5405 C   0  0  0  0  0  0  0  0  0  0  0  0
   11.0960   13.1532   23.2589 C   0  0  2  0  0  0  0  0  0  0  0  0
   11.4320   14.1829   22.1763 C   0  0  0  0  0  0  0  0  0  0  0  0
   12.7025   15.2943   22.6967 Cl  0  0  0  0  0  0  0  0  0  0  0  0
   10.2272   12.1407   22.6503 N   0  0  0  0  0  0  0  0  0  0  0  0
    9.6283   11.1992   23.3874 C   0  0  0  0  0  0  0  0  0  0  0  0
    9.6767    9.9107   23.1832 N   0  0  0  0  0  0  0  0  0  0  0  0
    8.8022    9.4053   24.0970 C   0  0  0  0  0  0  0  0  0  0  0  0
    8.2373   10.4161   24.8263 C   0  0  0  0  0  0  0  0  0  0  0  0
    8.7685   11.5803   24.3763 O   0  0  0  0  0  0  0  0  0  0  0  0
  1  2  1  0
  2  3  1  0
  4  3  1  1
  4  5  1  0
  5  6  1  0
  4  7  1  0
  7  8  1  0
  8  9  2  0
  9 10  1  0
 10 11  2  0
 11 12  1  0
 12  8  1  0
M  END
>  <inchikey>  (588) 
GLKOPRGBSIQCBP-UHFFFAOYSA-N

>  <energy_score>  (588) 
-18.89314

>  <subsites>  (588) 
1 - Active Site

>  <alias>  (588) 
C35879-P37

>  <tags>  (588) 
openbind_a71ev2a_c1_scaffolds,BulkDock Fragalysis export,openbind_a71ev2a_c1_knitwork_impure,fragmenstein_placed

>  <distance_score>  (588) 
0.711456

>  <placement_batch>  (588) 
openbind_a71ev2a_c1_knitwork_impure

>  <name>  (588) 
C35879-P37

>  <ref_mols>  (588) 
A3623a,A0310a

>  <smiles>  (588) 
COC[C@H](CCl)Nc1ncco1

>  <HIPPO Compound ID>  (588) 
14136

>  <HIPPO Pose ID>  (588) 
456233

>  <ref_pdb>  (588) 
A5036b

$$$$
C716-P440
     RDKit          3D

 14 16  0  0  0  0  0  0  0  0999 V2000
   10.4303   15.8549   21.5331 C   0  0  0  0  0  0  0  0  0  0  0  0
   11.4987   15.1429   22.0534 C   0  0  0  0  0  0  0  0  0  0  0  0
   11.2567   14.2011   23.0489 C   0  0  0  0  0  0  0  0  0  0  0  0
    9.9489   13.9909   23.4955 C   0  0  0  0  0  0  0  0  0  0  0  0
    9.6805   12.8086   24.2630 N   0  0  0  0  0  0  0  0  0  0  0  0
    8.4803   12.9978   25.1035 C   0  0  0  0  0  0  0  0  0  0  0  0
    8.1016   11.6751   25.7739 C   0  0  0  0  0  0  0  0  0  0  0  0
    7.8022   10.6303   24.7041 C   0  0  0  0  0  0  0  0  0  0  0  0
    9.0151   10.4730   23.8297 C   0  0  0  0  0  0  0  0  0  0  0  0
    9.9657    9.3757   24.2318 C   0  0  0  0  0  0  0  0  0  0  0  0
    9.1898    9.2414   22.9638 C   0  0  0  0  0  0  0  0  0  0  0  0
    9.4855   11.7736   23.2251 C   0  0  0  0  0  0  0  0  0  0  0  0
    8.9198   14.7381   23.0441 N   0  0  0  0  0  0  0  0  0  0  0  0
    9.1773   15.6378   22.0726 C   0  0  0  0  0  0  0  0  0  0  0  0
  1  2  2  0
  2  3  1  0
  3  4  2  0
  4  5  1  0
  5  6  1  0
  6  7  1  0
  7  8  1  0
  8  9  1  0
  9 10  1  0
 10 11  1  0
  9 12  1  0
  4 13  1  0
 13 14  2  0
 14  1  1  0
 12  5  1  0
 11  9  1  0
M  END
>  <inchikey>  (589) 
NRWGAZDGIQPBJK-UHFFFAOYSA-N

>  <energy_score>  (589) 
-26.143309

>  <subsites>  (589) 
1 - Active Site

>  <alias>  (589) 
C716-P440

>  <tags>  (589) 
openbind_a71ev2a_c1_scaffolds,BulkDock Fragalysis export,openbind_a71ev2a_c1_knitwork_impure,fragmenstein_placed

>  <distance_score>  (589) 
0.983835

>  <placement_batch>  (589) 
openbind_a71ev2a_c1_knitwork_impure

>  <name>  (589) 
C716-P440

>  <ref_mols>  (589) 
A4707a,A2629a

>  <smiles>  (589) 
c1ccc(N2CCCC3(CC3)C2)nc1

>  <HIPPO Compound ID>  (589) 
40896

>  <HIPPO Pose ID>  (589) 
456475

>  <ref_pdb>  (589) 
A5036b

$$$$
C25767-P356
     RDKit          3D

 13 13  0  0  0  0  0  0  0  0999 V2000
    9.9684   13.7652   23.5363 C   0  0  0  0  0  0  0  0  0  0  0  0
    8.4780   14.0290   23.6938 C   0  0  0  0  0  0  0  0  0  0  0  0
    7.8473   13.2665   24.8788 C   0  0  2  0  0  0  0  0  0  0  0  0
    7.7982   11.7608   24.5675 C   0  0  0  0  0  0  0  0  0  0  0  0
    6.4491   13.8551   25.2465 C   0  0  2  0  0  0  0  0  0  0  0  0
    5.6595   12.9565   26.2057 C   0  0  0  0  0  0  0  0  0  0  0  0
    5.7238   13.8961   24.0792 F   0  0  0  0  0  0  0  0  0  0  0  0
    6.4540   15.3177   25.7478 C   0  0  0  0  0  0  0  0  0  0  0  0
    7.3737   15.6762   26.9264 C   0  0  1  0  0  0  0  0  0  0  0  0
    7.2014   17.1351   27.3436 C   0  0  0  0  0  0  0  0  0  0  0  0
    6.1162   17.1212   28.4101 C   0  0  0  0  0  0  0  0  0  0  0  0
    5.9414   15.6589   28.7800 C   0  0  0  0  0  0  0  0  0  0  0  0
    7.0841   14.9574   28.1787 N   0  0  0  0  0  0  0  0  0  0  0  0
  1  2  1  0
  2  3  1  0
  3  4  1  6
  3  5  1  0
  5  6  1  1
  5  7  1  0
  5  8  1  0
  9  8  1  6
  9 10  1  0
 10 11  1  0
 11 12  1  0
 12 13  1  0
 13  9  1  0
M  END
>  <inchikey>  (590) 
HJXNHEVQRCOAHH-UHFFFAOYSA-N

>  <energy_score>  (590) 
-30.165644

>  <subsites>  (590) 
1 - Active Site

>  <alias>  (590) 
C25767-P356

>  <tags>  (590) 
openbind_a71ev2a_c1_scaffolds,BulkDock Fragalysis export,openbind_a71ev2a_c1_knitwork_impure,fragmenstein_placed

>  <distance_score>  (590) 
0.997638

>  <placement_batch>  (590) 
openbind_a71ev2a_c1_knitwork_impure

>  <name>  (590) 
C25767-P356

>  <ref_mols>  (590) 
A1775a,A4418a

>  <smiles>  (590) 
CC[C@H](C)[C@](C)(F)C[C@H]1CCCN1

>  <HIPPO Compound ID>  (590) 
20308

>  <HIPPO Pose ID>  (590) 
456780

>  <ref_pdb>  (590) 
A5036b

$$$$
C92177-P134
     RDKit          3D

 23 26  0  0  0  0  0  0  0  0999 V2000
   12.7035   12.4711   23.6985 O   0  0  0  0  0  0  0  0  0  0  0  0
   11.7924   13.0719   23.2819 C   0  0  0  0  0  0  0  0  0  0  0  0
   10.2814   12.9759   23.6266 N   0  0  0  0  0  0  0  0  0  0  0  0
    9.6107   12.1063   24.4375 C   0  0  0  0  0  0  0  0  0  0  0  0
    9.9957   10.8308   24.7557 C   0  0  0  0  0  0  0  0  0  0  0  0
    8.9491   10.2287   25.4018 N   0  0  0  0  0  0  0  0  0  0  0  0
    7.9613   11.1461   25.6655 C   0  0  0  0  0  0  0  0  0  0  0  0
    6.7716   11.0167   26.3901 C   0  0  0  0  0  0  0  0  0  0  0  0
    5.9746   12.1524   26.5362 C   0  0  0  0  0  0  0  0  0  0  0  0
    6.3334   13.3575   25.9398 C   0  0  0  0  0  0  0  0  0  0  0  0
    7.5024   13.4598   25.1767 C   0  0  0  0  0  0  0  0  0  0  0  0
    8.3455   12.3383   25.0512 C   0  0  0  0  0  0  0  0  0  0  0  0
   11.9425   14.0515   22.1751 C   0  0  0  0  0  0  0  0  0  0  0  0
   12.2410   13.6458   20.8837 C   0  0  0  0  0  0  0  0  0  0  0  0
   11.8007   14.3355   19.7435 C   0  0  0  0  0  0  0  0  0  0  0  0
   10.9977   15.4065   19.9538 C   0  0  0  0  0  0  0  0  0  0  0  0
   10.9982   15.9496   21.2303 C   0  0  0  0  0  0  0  0  0  0  0  0
   11.4535   15.3045   22.3507 C   0  0  0  0  0  0  0  0  0  0  0  0
   10.4685   17.2476   21.2110 N   0  0  0  0  0  0  0  0  0  0  0  0
    9.1640   17.1225   20.2402 S   0  0  0  0  0  0  0  0  0  0  0  0
    8.7996   18.4189   19.7270 O   0  0  0  0  0  0  0  0  0  0  0  0
    8.2723   16.2988   21.0441 O   0  0  0  0  0  0  0  0  0  0  0  0
   10.0668   16.1049   19.0046 C   0  0  0  0  0  0  0  0  0  0  0  0
  1  2  2  0
  2  3  1  0
  3  4  1  0
  4  5  2  0
  5  6  1  0
  6  7  1  0
  7  8  2  0
  8  9  1  0
  9 10  2  0
 10 11  1  0
 11 12  2  0
  2 13  1  0
 13 14  2  0
 14 15  1  0
 15 16  2  0
 16 17  1  0
 17 18  2  0
 17 19  1  0
 19 20  1  0
 20 21  2  0
 20 22  2  0
 20 23  1  0
 12  4  1  0
 18 13  1  0
 12  7  1  0
 23 16  1  0
M  END
>  <inchikey>  (591) 
KRQYBBCCQUVOQQ-UHFFFAOYSA-N

>  <energy_score>  (591) 
-4.738727

>  <subsites>  (591) 
1 - Active Site

>  <alias>  (591) 
C92177-P134

>  <tags>  (591) 
openbind_a71ev2a_c1_scaffolds,BulkDock Fragalysis export,openbind_a71ev2a_c1_knitwork_impure,fragmenstein_placed

>  <distance_score>  (591) 
0.933299

>  <placement_batch>  (591) 
openbind_a71ev2a_c1_knitwork_impure

>  <name>  (591) 
C92177-P134

>  <ref_mols>  (591) 
A3568a,A2513a

>  <smiles>  (591) 
O=C(Nc1c[nH]c2ccccc12)c1ccc2c(c1)NS(=O)(=O)C2

>  <HIPPO Compound ID>  (591) 
11833

>  <HIPPO Pose ID>  (591) 
456880

>  <ref_pdb>  (591) 
A5036b

$$$$
C7527-P465
     RDKit          3D

 15 15  0  0  0  0  0  0  0  0999 V2000
    6.3849   12.3278   24.1202 F   0  0  0  0  0  0  0  0  0  0  0  0
    6.5590   11.9998   25.4152 C   0  0  0  0  0  0  0  0  0  0  0  0
    5.4075   11.4848   25.8958 F   0  0  0  0  0  0  0  0  0  0  0  0
    6.7854   13.1254   26.1198 F   0  0  0  0  0  0  0  0  0  0  0  0
    7.6586   10.9623   25.5931 C   0  0  0  0  0  0  0  0  0  0  0  0
    8.7746   11.0504   24.7115 O   0  0  0  0  0  0  0  0  0  0  0  0
    9.8200   11.8959   25.1765 C   0  0  0  0  0  0  0  0  0  0  0  0
    9.5547   13.3857   24.9882 C   0  0  0  0  0  0  0  0  0  0  0  0
    9.3283   13.6733   23.5725 N   0  0  0  0  0  0  0  0  0  0  0  0
    9.3235   15.1096   23.3384 N   0  0  0  0  0  0  0  0  0  0  0  0
   10.7020   15.6392   23.3923 C   0  0  0  0  0  0  0  0  0  0  0  0
   11.6396   15.0978   22.3209 C   0  0  0  0  0  0  0  0  0  0  0  0
   11.0736   15.3664   20.9382 C   0  0  0  0  0  0  0  0  0  0  0  0
    9.6380   14.8754   20.8366 C   0  0  0  0  0  0  0  0  0  0  0  0
    8.7667   15.3837   21.9893 C   0  0  0  0  0  0  0  0  0  0  0  0
  1  2  1  0
  2  3  1  0
  2  4  1  0
  2  5  1  0
  5  6  1  0
  6  7  1  0
  7  8  1  0
  8  9  1  0
  9 10  1  0
 10 11  1  0
 11 12  1  0
 12 13  1  0
 13 14  1  0
 14 15  1  0
 15 10  1  0
M  END
>  <inchikey>  (592) 
DFDDAHMVJZQNIS-UHFFFAOYSA-N

>  <energy_score>  (592) 
-20.404094

>  <subsites>  (592) 
1 - Active Site

>  <alias>  (592) 
C7527-P465

>  <tags>  (592) 
openbind_a71ev2a_c1_scaffolds,BulkDock Fragalysis export,openbind_a71ev2a_c1_knitwork_impure,fragmenstein_placed

>  <distance_score>  (592) 
0.92295

>  <placement_batch>  (592) 
openbind_a71ev2a_c1_knitwork_impure

>  <name>  (592) 
C7527-P465

>  <ref_mols>  (592) 
A1445a,A4786a

>  <smiles>  (592) 
FC(F)(F)COCCNN1CCCCC1

>  <HIPPO Compound ID>  (592) 
40856

>  <HIPPO Pose ID>  (592) 
457326

>  <ref_pdb>  (592) 
A5036b

$$$$
C1002-P336
     RDKit          3D

 20 22  0  0  0  0  0  0  0  0999 V2000
   30.4080    8.2021    1.2415 C   0  0  0  0  0  0  0  0  0  0  0  0
   30.1750    9.3366    1.5615 C   0  0  0  0  0  0  0  0  0  0  0  0
   29.9124   10.7299    1.9518 C   0  0  2  0  0  0  0  0  0  0  0  0
   28.5218   11.0270    1.7204 N   0  0  0  0  0  0  0  0  0  0  0  0
   27.6284   12.1630    2.2818 C   0  0  0  0  0  0  0  0  0  0  0  0
   27.8612   12.9849    3.0757 O   0  0  0  0  0  0  0  0  0  0  0  0
   26.2704   12.0463    1.5808 C   0  0  2  0  0  0  0  0  0  0  0  0
   26.3743   12.3676    0.0782 C   0  0  0  0  0  0  0  0  0  0  0  0
   25.0293   12.1434   -0.6147 C   0  0  0  0  0  0  0  0  0  0  0  0
   23.9297   12.7933    0.1341 C   0  0  0  0  0  0  0  0  0  0  0  0
   22.7346   13.1241   -0.2989 N   0  0  0  0  0  0  0  0  0  0  0  0
   22.0665   13.7278    0.7413 N   0  0  0  0  0  0  0  0  0  0  0  0
   22.8658   13.7482    1.7899 C   0  0  0  0  0  0  0  0  0  0  0  0
   22.5658   14.3378    3.1093 C   0  0  0  0  0  0  0  0  0  0  0  0
   24.0431   13.1419    1.4526 N   0  0  0  0  0  0  0  0  0  0  0  0
   25.2453   12.9838    2.2461 C   0  0  0  0  0  0  0  0  0  0  0  0
   30.7100   11.6935    1.0786 C   0  0  0  0  0  0  0  0  0  0  0  0
   30.7710   13.1859    1.5189 C   0  0  0  0  0  0  0  0  0  0  0  0
   32.2267   13.2015    1.0128 C   0  0  0  0  0  0  0  0  0  0  0  0
   32.2549   11.6829    1.2746 C   0  0  0  0  0  0  0  0  0  0  0  0
  1  2  3  0
  3  2  1  6
  3  4  1  0
  4  5  1  0
  5  6  2  0
  7  5  1  1
  7  8  1  0
  8  9  1  0
  9 10  1  0
 10 11  2  0
 11 12  1  0
 12 13  2  0
 13 14  1  0
 13 15  1  0
 15 16  1  0
  3 17  1  0
 17 18  1  0
 18 19  1  0
 19 20  1  0
 16  7  1  0
 20 17  1  0
 15 10  1  0
M  END
>  <inchikey>  (593) 
RPYFJMJVSOYEFT-UHFFFAOYSA-N

>  <energy_score>  (593) 
-18.526792

>  <subsites>  (593) 
6 - A0486/A/147/1,1 - Active Site

>  <alias>  (593) 
C1002-P336

>  <tags>  (593) 
openbind_a71ev2a_c1_scaffolds,BulkDock Fragalysis export,openbind_a71ev2a_c1_knitwork_impure,fragmenstein_placed

>  <distance_score>  (593) 
0.467221

>  <placement_batch>  (593) 
openbind_a71ev2a_c1_knitwork_impure

>  <name>  (593) 
C1002-P336

>  <ref_mols>  (593) 
A4214a,A0239a

>  <smiles>  (593) 
C#C[C@H](NC(=O)[C@@H]1CCc2nnc(C)n2C1)C1CCC1

>  <HIPPO Compound ID>  (593) 
7141

>  <HIPPO Pose ID>  (593) 
457561

>  <ref_pdb>  (593) 
A5036b

$$$$
C7480-P618
     RDKit          3D

 13 13  0  0  0  0  0  0  0  0999 V2000
    8.7460    9.5263   24.5501 C   0  0  0  0  0  0  0  0  0  0  0  0
    8.3798   10.9338   24.8843 C   0  0  0  0  0  0  0  0  0  0  0  0
    7.1602   11.1611   25.7313 C   0  0  0  0  0  0  0  0  0  0  0  0
    9.1500   11.9100   24.3800 C   0  0  0  0  0  0  0  0  0  0  0  0
    8.9806   13.3497   24.6959 C   0  0  0  0  0  0  0  0  0  0  0  0
    8.7005   13.7561   25.7517 O   0  0  0  0  0  0  0  0  0  0  0  0
    9.3498   14.1037   23.3968 N   0  0  0  0  0  0  0  0  0  0  0  0
    9.5338   15.4462   23.1660 N   0  0  0  0  0  0  0  0  0  0  0  0
   10.9011   15.8116   23.5480 C   0  0  0  0  0  0  0  0  0  0  0  0
   11.9559   15.2192   22.6188 C   0  0  0  0  0  0  0  0  0  0  0  0
   11.6983   15.6428   21.1807 C   0  0  0  0  0  0  0  0  0  0  0  0
   10.2727   15.3096   20.7616 C   0  0  0  0  0  0  0  0  0  0  0  0
    9.2478   15.8303   21.7731 C   0  0  0  0  0  0  0  0  0  0  0  0
  1  2  1  0
  2  3  1  0
  2  4  2  3
  4  5  1  0
  5  6  2  0
  5  7  1  0
  7  8  1  0
  8  9  1  0
  9 10  1  0
 10 11  1  0
 11 12  1  0
 12 13  1  0
 13  8  1  0
M  END
>  <inchikey>  (594) 
IBUVLDQWYDBITO-UHFFFAOYSA-N

>  <energy_score>  (594) 
-15.05567

>  <subsites>  (594) 
1 - Active Site

>  <alias>  (594) 
C7480-P618

>  <tags>  (594) 
openbind_a71ev2a_c1_scaffolds,BulkDock Fragalysis export,openbind_a71ev2a_c1_knitwork_impure,fragmenstein_placed

>  <distance_score>  (594) 
0.936594

>  <placement_batch>  (594) 
openbind_a71ev2a_c1_knitwork_impure

>  <name>  (594) 
C7480-P618

>  <ref_mols>  (594) 
A5425b,A0310a

>  <smiles>  (594) 
CC(C)=CC(=O)NN1CCCCC1

>  <HIPPO Compound ID>  (594) 
1357

>  <HIPPO Pose ID>  (594) 
457586

>  <ref_pdb>  (594) 
A5036b

$$$$
C727-P557
     RDKit          3D

 12 13  0  0  0  0  0  0  0  0999 V2000
    9.2611   10.8847   23.7718 C   0  0  0  0  0  0  0  0  0  0  0  0
    9.7039   12.1416   23.3780 C   0  0  0  0  0  0  0  0  0  0  0  0
    9.1377   13.2743   23.9531 C   0  0  0  0  0  0  0  0  0  0  0  0
    9.5157   14.5764   23.6328 N   0  0  0  0  0  0  0  0  0  0  0  0
   10.8366   15.0064   24.1001 C   0  0  0  0  0  0  0  0  0  0  0  0
   11.9116   14.8433   23.0326 C   0  0  0  0  0  0  0  0  0  0  0  0
   11.5092   15.5228   21.7303 C   0  0  0  0  0  0  0  0  0  0  0  0
   10.1625   14.9927   21.2537 C   0  0  0  0  0  0  0  0  0  0  0  0
    9.0856   15.1138   22.3297 C   0  0  0  0  0  0  0  0  0  0  0  0
    8.1322   13.0786   24.9008 C   0  0  0  0  0  0  0  0  0  0  0  0
    7.7429   11.7877   25.2257 C   0  0  0  0  0  0  0  0  0  0  0  0
    8.2947   10.6812   24.6912 N   0  0  0  0  0  0  0  0  0  0  0  0
  1  2  2  0
  2  3  1  0
  3  4  1  0
  4  5  1  0
  5  6  1  0
  6  7  1  0
  7  8  1  0
  8  9  1  0
  3 10  2  0
 10 11  1  0
 11 12  2  0
 12  1  1  0
  9  4  1  0
M  END
>  <inchikey>  (595) 
CFGUFSRARCDEJB-UHFFFAOYSA-N

>  <energy_score>  (595) 
-19.079851

>  <subsites>  (595) 
1 - Active Site

>  <alias>  (595) 
C727-P557

>  <tags>  (595) 
openbind_a71ev2a_c1_scaffolds,BulkDock Fragalysis export,openbind_a71ev2a_c1_knitwork_impure,fragmenstein_placed

>  <distance_score>  (595) 
0.833551

>  <placement_batch>  (595) 
openbind_a71ev2a_c1_knitwork_impure

>  <name>  (595) 
C727-P557

>  <ref_mols>  (595) 
A5079a,A2629a

>  <smiles>  (595) 
c1cc(N2CCCCC2)ccn1

>  <HIPPO Compound ID>  (595) 
1814

>  <HIPPO Pose ID>  (595) 
458177

>  <ref_pdb>  (595) 
A5036b

$$$$
C2410-P302
     RDKit          3D

 14 14  0  0  0  0  0  0  0  0999 V2000
   11.7355   15.9150   22.3175 C   0  0  0  0  0  0  0  0  0  0  0  0
   10.8595   15.1133   23.2473 C   0  0  0  0  0  0  0  0  0  0  0  0
   11.4729   13.9215   23.4759 F   0  0  0  0  0  0  0  0  0  0  0  0
   10.7920   15.7553   24.4408 F   0  0  0  0  0  0  0  0  0  0  0  0
    9.4639   14.8998   22.6783 C   0  0  0  0  0  0  0  0  0  0  0  0
    8.7023   13.7381   23.3125 C   0  0  0  0  0  0  0  0  0  0  0  0
    8.4998   13.8551   24.8206 C   0  0  2  0  0  0  0  0  0  0  0  0
    9.7070   13.7739   25.4634 F   0  0  0  0  0  0  0  0  0  0  0  0
    7.6343   12.7376   25.4295 C   0  0  1  0  0  0  0  0  0  0  0  0
    6.2273   13.2250   25.7672 C   0  0  0  0  0  0  0  0  0  0  0  0
    5.5395   12.2221   26.6820 C   0  0  0  0  0  0  0  0  0  0  0  0
    5.6722   10.7907   26.1803 C   0  0  0  0  0  0  0  0  0  0  0  0
    6.9802   10.4322   25.4768 C   0  0  0  0  0  0  0  0  0  0  0  0
    7.5359   11.4933   24.6485 N   0  0  0  0  0  0  0  0  0  0  0  0
  1  2  1  0
  2  3  1  0
  2  4  1  0
  2  5  1  0
  5  6  1  0
  6  7  1  0
  7  8  1  1
  7  9  1  0
  9 10  1  6
 10 11  1  0
 11 12  1  0
 12 13  1  0
 13 14  1  0
 14  9  1  0
M  END
>  <inchikey>  (596) 
GYLBIGBYLJSRMM-UHFFFAOYSA-N

>  <energy_score>  (596) 
-36.248587

>  <subsites>  (596) 
1 - Active Site

>  <alias>  (596) 
C2410-P302

>  <tags>  (596) 
openbind_a71ev2a_c1_scaffolds,BulkDock Fragalysis export,openbind_a71ev2a_c1_knitwork_impure,fragmenstein_placed

>  <distance_score>  (596) 
0.917277

>  <placement_batch>  (596) 
openbind_a71ev2a_c1_knitwork_impure

>  <name>  (596) 
C2410-P302

>  <ref_mols>  (596) 
A1779a,A4319a

>  <smiles>  (596) 
CC(F)(F)CC[C@H](F)[C@H]1CCCCN1

>  <HIPPO Compound ID>  (596) 
540

>  <HIPPO Pose ID>  (596) 
458316

>  <ref_pdb>  (596) 
A5036b

$$$$
C542-P467
     RDKit          3D

 19 22  0  0  0  0  0  0  0  0999 V2000
   27.1491   19.9823   21.6443 C   0  0  0  0  0  0  0  0  0  0  0  0
   28.2569   20.3478   20.8865 C   0  0  0  0  0  0  0  0  0  0  0  0
   28.1072   21.1043   19.7192 C   0  0  0  0  0  0  0  0  0  0  0  0
   26.8108   21.4821   19.3299 C   0  0  0  0  0  0  0  0  0  0  0  0
   26.3033   22.3944   17.9675 S   0  0  0  0  0  0  0  0  0  0  0  0
   24.6498   22.2798   18.4714 C   0  0  0  0  0  0  0  0  0  0  0  0
   23.6157   22.9282   17.8442 N   0  0  0  0  0  0  0  0  0  0  0  0
   23.6598   23.1599   16.3923 C   0  0  0  0  0  0  0  0  0  0  0  0
   22.5837   24.1889   15.9647 C   0  0  0  0  0  0  0  0  0  0  0  0
   21.2076   23.8302   16.4127 N   0  0  0  0  0  0  0  0  0  0  0  0
   20.2897   24.9328   16.0721 C   0  0  0  0  0  0  0  0  0  0  0  0
   20.0245   24.9667   14.5430 C   0  0  0  0  0  0  0  0  0  0  0  0
   18.5370   25.1898   14.8892 C   0  0  0  0  0  0  0  0  0  0  0  0
   18.8198   24.4533   16.2154 C   0  0  0  0  0  0  0  0  0  0  0  0
   21.2497   23.6772   17.8886 C   0  0  0  0  0  0  0  0  0  0  0  0
   22.2694   22.6141   18.3458 C   0  0  0  0  0  0  0  0  0  0  0  0
   24.4807   21.5786   19.5746 N   0  0  0  0  0  0  0  0  0  0  0  0
   25.6889   21.1272   20.0729 C   0  0  0  0  0  0  0  0  0  0  0  0
   25.8637   20.3666   21.2480 C   0  0  0  0  0  0  0  0  0  0  0  0
  1  2  2  0
  2  3  1  0
  3  4  2  0
  4  5  1  0
  5  6  1  0
  6  7  1  0
  7  8  1  0
  8  9  1  0
  9 10  1  0
 10 11  1  0
 11 12  1  0
 12 13  1  0
 13 14  1  0
 10 15  1  0
 15 16  1  0
  6 17  2  0
 17 18  1  0
 18 19  2  0
 19  1  1  0
 18  4  1  0
 16  7  1  0
 14 11  1  0
M  END
>  <inchikey>  (597) 
VIUGNCAMDRTQJK-UHFFFAOYSA-N

>  <energy_score>  (597) 
-78.844975

>  <subsites>  (597) 
1 - Active Site,5 - A3181/A/202/1

>  <alias>  (597) 
C542-P467

>  <tags>  (597) 
openbind_a71ev2a_c1_scaffolds,BulkDock Fragalysis export,openbind_a71ev2a_c1_knitwork_impure,fragmenstein_placed

>  <distance_score>  (597) 
0.482404

>  <placement_batch>  (597) 
openbind_a71ev2a_c1_knitwork_impure

>  <name>  (597) 
C542-P467

>  <ref_mols>  (597) 
A0514b,A4794a

>  <smiles>  (597) 
c1ccc2sc(N3CCN(C4CCC4)CC3)nc2c1

>  <HIPPO Compound ID>  (597) 
16846

>  <HIPPO Pose ID>  (597) 
458348

>  <ref_pdb>  (597) 
A5036b

$$$$
C15040-P153
     RDKit          3D

 19 19  0  0  0  0  0  0  0  0999 V2000
   10.9701   15.3484   24.7720 O   0  0  0  0  0  0  0  0  0  0  0  0
   10.9552   14.7473   23.7666 C   0  0  0  0  0  0  0  0  0  0  0  0
   12.1239   14.7890   22.8066 C   0  0  0  0  0  0  0  0  0  0  0  0
   11.9291   16.0454   21.5195 S   0  0  0  0  0  0  0  0  0  0  0  0
   10.5784   15.3392   20.4984 C   0  0  0  0  0  0  0  0  0  0  0  0
   10.5548   15.7906   19.0506 C   0  0  0  0  0  0  0  0  0  0  0  0
   11.5514   15.2121   18.3495 F   0  0  0  0  0  0  0  0  0  0  0  0
   10.6360   17.1197   18.9340 F   0  0  0  0  0  0  0  0  0  0  0  0
    9.3901   15.4353   18.4700 F   0  0  0  0  0  0  0  0  0  0  0  0
    9.8257   13.8827   23.1222 N   0  0  0  0  0  0  0  0  0  0  0  0
    8.2856   13.6353   23.5914 S   0  0  0  0  0  0  0  0  0  0  0  0
    7.5431   13.4109   22.3651 O   0  0  0  0  0  0  0  0  0  0  0  0
    7.9585   14.6606   24.5486 O   0  0  0  0  0  0  0  0  0  0  0  0
    8.3677   12.0789   24.4236 C   0  0  0  0  0  0  0  0  0  0  0  0
    9.0610   11.0194   23.8574 C   0  0  0  0  0  0  0  0  0  0  0  0
    8.7988    9.7631   24.3728 C   0  0  0  0  0  0  0  0  0  0  0  0
    7.8650    9.6397   25.3997 C   0  0  0  0  0  0  0  0  0  0  0  0
    7.2607   10.7671   25.9231 C   0  0  0  0  0  0  0  0  0  0  0  0
    7.5120   11.9960   25.4702 N   0  0  0  0  0  0  0  0  0  0  0  0
  1  2  2  0
  2  3  1  0
  3  4  1  0
  4  5  1  0
  5  6  1  0
  6  7  1  0
  6  8  1  0
  6  9  1  0
  2 10  1  0
 10 11  1  0
 11 12  2  0
 11 13  2  0
 11 14  1  0
 14 15  2  0
 15 16  1  0
 16 17  2  0
 17 18  1  0
 18 19  2  0
 19 14  1  0
M  END
>  <inchikey>  (598) 
JSOLCRWBOHDHLA-UHFFFAOYSA-N

>  <energy_score>  (598) 
-22.598726

>  <subsites>  (598) 
1 - Active Site

>  <alias>  (598) 
C15040-P153

>  <tags>  (598) 
openbind_a71ev2a_c1_scaffolds,BulkDock Fragalysis export,openbind_a71ev2a_c1_knitwork_impure,fragmenstein_placed

>  <distance_score>  (598) 
0.938199

>  <placement_batch>  (598) 
openbind_a71ev2a_c1_knitwork_impure

>  <name>  (598) 
C15040-P153

>  <ref_mols>  (598) 
A3207a,A0719a

>  <smiles>  (598) 
O=C(CSCC(F)(F)F)NS(=O)(=O)c1ccccn1

>  <HIPPO Compound ID>  (598) 
5949

>  <HIPPO Pose ID>  (598) 
458830

>  <ref_pdb>  (598) 
A5036b

$$$$
C15045-P153
     RDKit          3D

 15 15  0  0  0  0  0  0  0  0999 V2000
   12.1565   14.8961   23.1533 C   0  0  0  0  0  0  0  0  0  0  0  0
   11.6694   15.5299   22.0805 C   0  0  0  0  0  0  0  0  0  0  0  0
   10.6594   14.9080   21.1652 C   0  0  0  0  0  0  0  0  0  0  0  0
    9.2666   15.5041   21.3531 C   0  0  0  0  0  0  0  0  0  0  0  0
    8.6987   15.3227   22.7594 C   0  0  0  0  0  0  0  0  0  0  0  0
    8.3068   13.8875   23.0721 C   0  0  0  0  0  0  0  0  0  0  0  0
    7.6265   13.2257   22.2836 O   0  0  0  0  0  0  0  0  0  0  0  0
    8.7203   13.3578   24.4535 C   0  0  1  0  0  0  0  0  0  0  0  0
    8.1116   14.1775   25.4527 O   0  0  0  0  0  0  0  0  0  0  0  0
    8.4092   11.8911   24.6933 C   0  0  0  0  0  0  0  0  0  0  0  0
    9.0920   10.8990   23.9761 C   0  0  0  0  0  0  0  0  0  0  0  0
    8.8046    9.5656   24.2332 C   0  0  0  0  0  0  0  0  0  0  0  0
    7.8879    9.1601   25.1416 N   0  0  0  0  0  0  0  0  0  0  0  0
    7.2258   10.1219   25.8091 C   0  0  0  0  0  0  0  0  0  0  0  0
    7.4518   11.4755   25.6277 C   0  0  0  0  0  0  0  0  0  0  0  0
  1  2  2  0
  2  3  1  0
  3  4  1  0
  4  5  1  0
  5  6  1  0
  6  7  2  0
  6  8  1  0
  8  9  1  1
  8 10  1  0
 10 11  2  0
 11 12  1  0
 12 13  2  0
 13 14  1  0
 14 15  2  0
 15 10  1  0
M  END
>  <inchikey>  (599) 
AFJPCOIBOPEZRQ-UHFFFAOYSA-N

>  <energy_score>  (599) 
-12.941485

>  <subsites>  (599) 
1 - Active Site

>  <alias>  (599) 
C15045-P153

>  <tags>  (599) 
openbind_a71ev2a_c1_scaffolds,BulkDock Fragalysis export,openbind_a71ev2a_c1_knitwork_impure,fragmenstein_placed

>  <distance_score>  (599) 
0.666894

>  <placement_batch>  (599) 
openbind_a71ev2a_c1_knitwork_impure

>  <name>  (599) 
C15045-P153

>  <ref_mols>  (599) 
A3207a,A0719a

>  <smiles>  (599) 
C=CCCCC(=O)[C@@H](O)c1ccncc1

>  <HIPPO Compound ID>  (599) 
35886

>  <HIPPO Pose ID>  (599) 
458835

>  <ref_pdb>  (599) 
A5036b

$$$$
C15048-P153
     RDKit          3D

 16 16  0  0  0  0  0  0  0  0999 V2000
    7.7067   15.6628   26.6735 C   0  0  0  0  0  0  0  0  0  0  0  0
    8.0580   14.2074   26.4048 C   0  0  0  0  0  0  0  0  0  0  0  0
    7.5541   13.6562   25.0467 C   0  0  1  0  0  0  0  0  0  0  0  0
    8.1841   14.4446   23.9899 N   0  0  0  0  0  0  0  0  0  0  0  0
    7.5314   14.5586   22.4658 S   0  0  0  0  0  0  0  0  0  0  0  0
    8.5264   15.2701   21.7035 O   0  0  0  0  0  0  0  0  0  0  0  0
    7.0852   13.2511   22.0567 O   0  0  0  0  0  0  0  0  0  0  0  0
    6.2183   15.5508   22.6904 N   0  0  0  0  0  0  0  0  0  0  0  0
    6.4836   16.8268   23.3646 C   0  0  0  0  0  0  0  0  0  0  0  0
    4.9042   14.9695   22.9685 C   0  0  0  0  0  0  0  0  0  0  0  0
    7.7974   12.1471   25.0109 C   0  0  0  0  0  0  0  0  0  0  0  0
    6.9853   11.3438   25.8299 C   0  0  0  0  0  0  0  0  0  0  0  0
    7.1472    9.9713   25.8274 C   0  0  0  0  0  0  0  0  0  0  0  0
    8.0552    9.3376   25.0691 N   0  0  0  0  0  0  0  0  0  0  0  0
    8.8298   10.1074   24.2703 C   0  0  0  0  0  0  0  0  0  0  0  0
    8.7509   11.4972   24.2176 C   0  0  0  0  0  0  0  0  0  0  0  0
  1  2  1  0
  3  2  1  1
  3  4  1  0
  4  5  1  0
  5  6  2  0
  5  7  2  0
  5  8  1  0
  8  9  1  0
  8 10  1  0
  3 11  1  0
 11 12  2  0
 12 13  1  0
 13 14  2  0
 14 15  1  0
 15 16  2  0
 16 11  1  0
M  END
>  <inchikey>  (600) 
SOLMNNBILPZOSX-UHFFFAOYSA-N

>  <energy_score>  (600) 
-33.371986

>  <subsites>  (600) 
1 - Active Site

>  <alias>  (600) 
C15048-P153

>  <tags>  (600) 
openbind_a71ev2a_c1_scaffolds,BulkDock Fragalysis export,openbind_a71ev2a_c1_knitwork_impure,fragmenstein_placed

>  <distance_score>  (600) 
0.768401

>  <placement_batch>  (600) 
openbind_a71ev2a_c1_knitwork_impure

>  <name>  (600) 
C15048-P153

>  <ref_mols>  (600) 
A3207a,A0719a

>  <smiles>  (600) 
CC[C@@H](NS(=O)(=O)N(C)C)c1ccncc1

>  <HIPPO Compound ID>  (600) 
532

>  <HIPPO Pose ID>  (600) 
458837

>  <ref_pdb>  (600) 
A5036b

$$$$
C15067-P153
     RDKit          3D

 15 15  0  0  0  0  0  0  0  0999 V2000
   12.0224   15.0908   23.0574 C   0  0  0  0  0  0  0  0  0  0  0  0
   11.6738   15.6329   21.6788 C   0  0  0  0  0  0  0  0  0  0  0  0
   10.4470   14.9611   21.0654 C   0  0  0  0  0  0  0  0  0  0  0  0
    9.2290   15.6265   21.3820 O   0  0  0  0  0  0  0  0  0  0  0  0
    8.7089   15.4025   22.6729 C   0  0  0  0  0  0  0  0  0  0  0  0
    8.2388   13.9842   22.9896 C   0  0  0  0  0  0  0  0  0  0  0  0
    7.5647   13.3223   22.1945 O   0  0  0  0  0  0  0  0  0  0  0  0
    8.5855   13.4631   24.3863 C   0  0  1  0  0  0  0  0  0  0  0  0
    7.6933   14.0766   25.3118 O   0  0  0  0  0  0  0  0  0  0  0  0
    8.5633   11.9571   24.4824 C   0  0  0  0  0  0  0  0  0  0  0  0
    9.3743   11.1910   23.6349 C   0  0  0  0  0  0  0  0  0  0  0  0
    9.3478    9.8071   23.7092 C   0  0  0  0  0  0  0  0  0  0  0  0
    8.5313    9.2309   24.6562 C   0  0  0  0  0  0  0  0  0  0  0  0
    7.7348    9.9189   25.5030 N   0  0  0  0  0  0  0  0  0  0  0  0
    7.7658   11.2658   25.3896 C   0  0  0  0  0  0  0  0  0  0  0  0
  1  2  1  0
  2  3  1  0
  3  4  1  0
  4  5  1  0
  5  6  1  0
  6  7  2  0
  6  8  1  0
  8  9  1  1
  8 10  1  0
 10 11  2  0
 11 12  1  0
 12 13  2  0
 13 14  1  0
 14 15  2  0
 15 10  1  0
M  END
>  <inchikey>  (601) 
YLJPPWLVJABBLI-UHFFFAOYSA-N

>  <energy_score>  (601) 
-35.707089

>  <subsites>  (601) 
1 - Active Site

>  <alias>  (601) 
C15067-P153

>  <tags>  (601) 
openbind_a71ev2a_c1_scaffolds,BulkDock Fragalysis export,openbind_a71ev2a_c1_knitwork_impure,fragmenstein_placed

>  <distance_score>  (601) 
0.787606

>  <placement_batch>  (601) 
openbind_a71ev2a_c1_knitwork_impure

>  <name>  (601) 
C15067-P153

>  <ref_mols>  (601) 
A3207a,A0719a

>  <smiles>  (601) 
CCCOCC(=O)[C@@H](O)c1cccnc1

>  <HIPPO Compound ID>  (601) 
15494

>  <HIPPO Pose ID>  (601) 
458849

>  <ref_pdb>  (601) 
A5036b

$$$$
C15070-P153
     RDKit          3D

 15 15  0  0  0  0  0  0  0  0999 V2000
   12.1594   14.6804   23.1147 C   0  0  0  0  0  0  0  0  0  0  0  0
   11.7843   15.6537   22.0111 C   0  0  0  0  0  0  0  0  0  0  0  0
   10.5506   15.2064   21.2086 C   0  0  2  0  0  0  0  0  0  0  0  0
   10.7300   15.6173   19.7372 C   0  0  0  0  0  0  0  0  0  0  0  0
    9.2404   15.8283   21.7357 C   0  0  0  0  0  0  0  0  0  0  0  0
    8.6586   15.3027   23.0574 C   0  0  2  0  0  0  0  0  0  0  0  0
    9.5070   15.5504   24.1571 O   0  0  0  0  0  0  0  0  0  0  0  0
    8.1201   13.8812   22.8978 C   0  0  0  0  0  0  0  0  0  0  0  0
    7.3261   13.5494   22.0156 O   0  0  0  0  0  0  0  0  0  0  0  0
    8.5070   12.8055   23.8104 C   0  0  0  0  0  0  0  0  0  0  0  0
    7.5878   12.3121   24.7373 C   0  0  0  0  0  0  0  0  0  0  0  0
    7.7272   11.0043   25.1958 C   0  0  0  0  0  0  0  0  0  0  0  0
    8.7694   10.2471   24.6905 C   0  0  0  0  0  0  0  0  0  0  0  0
    9.7141   10.7335   23.8590 N   0  0  0  0  0  0  0  0  0  0  0  0
    9.5594   12.0002   23.4215 C   0  0  0  0  0  0  0  0  0  0  0  0
  1  2  1  0
  2  3  1  0
  3  4  1  6
  3  5  1  0
  5  6  1  0
  6  7  1  1
  6  8  1  0
  8  9  2  0
  8 10  1  0
 10 11  2  0
 11 12  1  0
 12 13  2  0
 13 14  1  0
 14 15  2  0
 15 10  1  0
M  END
>  <inchikey>  (602) 
CPAZNKHVDOFCMV-UHFFFAOYSA-N

>  <energy_score>  (602) 
-17.760465

>  <subsites>  (602) 
1 - Active Site

>  <alias>  (602) 
C15070-P153

>  <tags>  (602) 
openbind_a71ev2a_c1_scaffolds,BulkDock Fragalysis export,openbind_a71ev2a_c1_knitwork_impure,fragmenstein_placed

>  <distance_score>  (602) 
0.911186

>  <placement_batch>  (602) 
openbind_a71ev2a_c1_knitwork_impure

>  <name>  (602) 
C15070-P153

>  <ref_mols>  (602) 
A3207a,A0719a

>  <smiles>  (602) 
CC[C@H](C)C[C@H](O)C(=O)c1cccnc1

>  <HIPPO Compound ID>  (602) 
15471

>  <HIPPO Pose ID>  (602) 
458851

>  <ref_pdb>  (602) 
A5036b

$$$$
C8131-P153
     RDKit          3D

 13 13  0  0  0  0  0  0  0  0999 V2000
   11.7189   15.4682   22.7536 C   0  0  0  0  0  0  0  0  0  0  0  0
   10.5202   15.4043   22.7248 C   0  0  0  0  0  0  0  0  0  0  0  0
    9.0572   15.3189   22.6141 C   0  0  0  0  0  0  0  0  0  0  0  0
    8.4995   14.0082   23.1380 C   0  0  0  0  0  0  0  0  0  0  0  0
    7.6462   13.3896   22.4941 O   0  0  0  0  0  0  0  0  0  0  0  0
    8.9810   13.5754   24.5425 C   0  0  1  0  0  0  0  0  0  0  0  0
    8.3203   14.3079   25.5709 O   0  0  0  0  0  0  0  0  0  0  0  0
    8.8896   12.0725   24.8509 C   0  0  0  0  0  0  0  0  0  0  0  0
    9.4347   11.2049   23.7197 C   0  0  0  0  0  0  0  0  0  0  0  0
    9.3334    9.7080   23.9670 C   0  0  0  0  0  0  0  0  0  0  0  0
    8.0710    9.2855   24.5423 N   0  0  0  0  0  0  0  0  0  0  0  0
    7.5053   10.1097   25.5877 C   0  0  0  0  0  0  0  0  0  0  0  0
    7.5079   11.5981   25.2732 C   0  0  0  0  0  0  0  0  0  0  0  0
  1  2  3  0
  2  3  1  0
  3  4  1  0
  4  5  2  0
  4  6  1  0
  6  7  1  1
  6  8  1  0
  8  9  1  0
  9 10  1  0
 10 11  1  0
 11 12  1  0
 12 13  1  0
 13  8  1  0
M  END
>  <inchikey>  (603) 
DRDOJMCYICGXFL-UHFFFAOYSA-N

>  <energy_score>  (603) 
-25.665404

>  <subsites>  (603) 
1 - Active Site

>  <alias>  (603) 
C8131-P153

>  <tags>  (603) 
openbind_a71ev2a_c1_scaffolds,BulkDock Fragalysis export,openbind_a71ev2a_c1_knitwork_impure,fragmenstein_placed

>  <distance_score>  (603) 
0.792594

>  <placement_batch>  (603) 
openbind_a71ev2a_c1_knitwork_impure

>  <name>  (603) 
C8131-P153

>  <ref_mols>  (603) 
A3207a,A0719a

>  <smiles>  (603) 
C#CCC(=O)[C@@H](O)C1CCNCC1

>  <HIPPO Compound ID>  (603) 
13067

>  <HIPPO Pose ID>  (603) 
458853

>  <ref_pdb>  (603) 
A5036b

$$$$
C8138-P153
     RDKit          3D

 15 15  0  0  0  0  0  0  0  0999 V2000
   11.9337   16.2270   21.6600 C   0  0  0  0  0  0  0  0  0  0  0  0
   11.9416   14.9727   22.5095 C   0  0  0  0  0  0  0  0  0  0  0  0
   10.7708   14.7886   23.4793 C   0  0  1  0  0  0  0  0  0  0  0  0
   10.9876   15.6105   24.7504 C   0  0  0  0  0  0  0  0  0  0  0  0
    9.4004   15.0680   22.8510 C   0  0  0  0  0  0  0  0  0  0  0  0
    8.4114   13.9534   23.1089 C   0  0  0  0  0  0  0  0  0  0  0  0
    7.6805   13.5347   22.2029 O   0  0  0  0  0  0  0  0  0  0  0  0
    8.2603   13.4222   24.5374 C   0  0  1  0  0  0  0  0  0  0  0  0
    7.2130   14.1535   25.1608 O   0  0  0  0  0  0  0  0  0  0  0  0
    7.9490   11.9254   24.4932 C   0  0  0  0  0  0  0  0  0  0  0  0
    9.1480   11.1374   23.9587 C   0  0  0  0  0  0  0  0  0  0  0  0
    8.9468    9.6338   24.0183 C   0  0  0  0  0  0  0  0  0  0  0  0
    8.3748    9.1823   25.2732 N   0  0  0  0  0  0  0  0  0  0  0  0
    7.2104    9.8856   25.7612 C   0  0  0  0  0  0  0  0  0  0  0  0
    7.4467   11.3822   25.8236 C   0  0  0  0  0  0  0  0  0  0  0  0
  1  2  1  0
  2  3  1  0
  3  4  1  1
  3  5  1  0
  5  6  1  0
  6  7  2  0
  6  8  1  0
  8  9  1  6
  8 10  1  0
 10 11  1  0
 11 12  1  0
 12 13  1  0
 13 14  1  0
 14 15  1  0
 15 10  1  0
M  END
>  <inchikey>  (604) 
BIIVMCIDBUMVDU-UHFFFAOYSA-N

>  <energy_score>  (604) 
-36.317695

>  <subsites>  (604) 
1 - Active Site

>  <alias>  (604) 
C8138-P153

>  <tags>  (604) 
openbind_a71ev2a_c1_scaffolds,BulkDock Fragalysis export,openbind_a71ev2a_c1_knitwork_impure,fragmenstein_placed

>  <distance_score>  (604) 
0.754986

>  <placement_batch>  (604) 
openbind_a71ev2a_c1_knitwork_impure

>  <name>  (604) 
C8138-P153

>  <ref_mols>  (604) 
A3207a,A0719a

>  <smiles>  (604) 
CC[C@@H](C)CC(=O)[C@@H](O)C1CCNCC1

>  <HIPPO Compound ID>  (604) 
32616

>  <HIPPO Pose ID>  (604) 
458856

>  <ref_pdb>  (604) 
A5036b

$$$$
C8141-P153
     RDKit          3D

 14 14  0  0  0  0  0  0  0  0999 V2000
   11.8278   15.9787   22.1056 C   0  0  0  0  0  0  0  0  0  0  0  0
   10.6661   15.4565   22.8801 C   0  0  0  0  0  0  0  0  0  0  0  0
    9.8165   14.5489   22.3803 C   0  0  0  0  0  0  0  0  0  0  0  0
    8.7427   13.8764   23.1597 C   0  0  0  0  0  0  0  0  0  0  0  0
    7.7255   13.5240   22.5561 O   0  0  0  0  0  0  0  0  0  0  0  0
    8.9927   13.5238   24.6614 C   0  0  2  0  0  0  0  0  0  0  0  0
    8.0537   14.4101   25.4812 C   0  0  0  0  0  0  0  0  0  0  0  0
   10.3155   13.8197   25.1471 O   0  0  0  0  0  0  0  0  0  0  0  0
    8.8268   12.0042   24.9360 C   0  0  0  0  0  0  0  0  0  0  0  0
    9.3721   11.1424   23.7880 C   0  0  0  0  0  0  0  0  0  0  0  0
    9.2756    9.6462   24.0258 C   0  0  0  0  0  0  0  0  0  0  0  0
    8.0221    9.2149   24.6103 N   0  0  0  0  0  0  0  0  0  0  0  0
    7.4239   10.0470   25.6291 C   0  0  0  0  0  0  0  0  0  0  0  0
    7.4312   11.5336   25.3024 C   0  0  0  0  0  0  0  0  0  0  0  0
  1  2  1  0
  2  3  2  3
  3  4  1  0
  4  5  2  0
  4  6  1  0
  6  7  1  1
  6  8  1  0
  6  9  1  0
  9 10  1  0
 10 11  1  0
 11 12  1  0
 12 13  1  0
 13 14  1  0
 14  9  1  0
M  END
>  <inchikey>  (605) 
WOKNKIOABYEMDE-UHFFFAOYSA-N

>  <energy_score>  (605) 
-20.117299

>  <subsites>  (605) 
1 - Active Site

>  <alias>  (605) 
C8141-P153

>  <tags>  (605) 
openbind_a71ev2a_c1_scaffolds,BulkDock Fragalysis export,openbind_a71ev2a_c1_knitwork_impure,fragmenstein_placed

>  <distance_score>  (605) 
0.887342

>  <placement_batch>  (605) 
openbind_a71ev2a_c1_knitwork_impure

>  <name>  (605) 
C8141-P153

>  <ref_mols>  (605) 
A3207a,A0719a

>  <smiles>  (605) 
CC=CC(=O)[C@](C)(O)C1CCNCC1

>  <HIPPO Compound ID>  (605) 
787

>  <HIPPO Pose ID>  (605) 
458858

>  <ref_pdb>  (605) 
A5036b

$$$$
C8152-P153
     RDKit          3D

 14 14  0  0  0  0  0  0  0  0999 V2000
    8.2610    9.2299   25.0079 C   0  0  0  0  0  0  0  0  0  0  0  0
    9.1530    9.8317   23.9484 C   0  0  0  0  0  0  0  0  0  0  0  0
    9.4030   11.2405   24.0874 O   0  0  0  0  0  0  0  0  0  0  0  0
    8.4346   12.0688   24.5608 C   0  0  0  0  0  0  0  0  0  0  0  0
    7.3101   11.7449   24.9081 O   0  0  0  0  0  0  0  0  0  0  0  0
    8.9627   13.4896   24.6147 C   0  0  2  0  0  0  0  0  0  0  0  0
    8.1566   14.3161   25.4562 O   0  0  0  0  0  0  0  0  0  0  0  0
    9.0019   14.0172   23.1684 C   0  0  0  0  0  0  0  0  0  0  0  0
    9.4558   15.4111   23.0639 N   0  0  0  0  0  0  0  0  0  0  0  0
   10.8163   15.6293   23.5587 C   0  0  0  0  0  0  0  0  0  0  0  0
   11.9002   15.0445   22.6616 C   0  0  0  0  0  0  0  0  0  0  0  0
   11.7759   15.5858   21.2438 C   0  0  0  0  0  0  0  0  0  0  0  0
   10.3603   15.4026   20.7114 C   0  0  0  0  0  0  0  0  0  0  0  0
    9.3172   15.9382   21.6950 C   0  0  0  0  0  0  0  0  0  0  0  0
  1  2  1  0
  2  3  1  0
  3  4  1  0
  4  5  2  0
  4  6  1  0
  6  7  1  1
  6  8  1  0
  8  9  1  0
  9 10  1  0
 10 11  1  0
 11 12  1  0
 12 13  1  0
 13 14  1  0
 14  9  1  0
M  END
>  <inchikey>  (606) 
GYBDNCZJKSYHSE-UHFFFAOYSA-N

>  <energy_score>  (606) 
-30.108623

>  <subsites>  (606) 
1 - Active Site

>  <alias>  (606) 
C8152-P153

>  <tags>  (606) 
openbind_a71ev2a_c1_scaffolds,BulkDock Fragalysis export,openbind_a71ev2a_c1_knitwork_impure,fragmenstein_placed

>  <distance_score>  (606) 
0.911495

>  <placement_batch>  (606) 
openbind_a71ev2a_c1_knitwork_impure

>  <name>  (606) 
C8152-P153

>  <ref_mols>  (606) 
A3207a,A0719a

>  <smiles>  (606) 
CCOC(=O)[C@H](O)CN1CCCCC1

>  <HIPPO Compound ID>  (606) 
7188

>  <HIPPO Pose ID>  (606) 
458866

>  <ref_pdb>  (606) 
A5036b

$$$$
C8161-P153
     RDKit          3D

 17 17  0  0  0  0  0  0  0  0999 V2000
    7.3641   15.2539   26.1635 C   0  0  0  0  0  0  0  0  0  0  0  0
    8.4332   15.4818   25.0895 C   0  0  0  0  0  0  0  0  0  0  0  0
    8.6291   14.3529   24.0259 C   0  0  2  0  0  0  0  0  0  0  0  0
    7.2407   14.0875   23.3854 C   0  0  0  0  0  0  0  0  0  0  0  0
    9.1159   13.0508   24.7738 C   0  0  2  0  0  0  0  0  0  0  0  0
   10.5099   13.1077   25.1253 O   0  0  0  0  0  0  0  0  0  0  0  0
    8.9099   11.7796   23.9636 C   0  0  0  0  0  0  0  0  0  0  0  0
    7.6946   11.1665   24.3956 O   0  0  0  0  0  0  0  0  0  0  0  0
    7.9215   10.1384   25.3462 C   0  0  0  0  0  0  0  0  0  0  0  0
    8.5603    8.9629   24.6252 C   0  0  0  0  0  0  0  0  0  0  0  0
    6.6098    9.7987   26.0391 C   0  0  0  0  0  0  0  0  0  0  0  0
    9.6734   14.6868   22.9943 N   0  0  0  0  0  0  0  0  0  0  0  0
   10.7974   15.5121   23.4772 C   0  0  0  0  0  0  0  0  0  0  0  0
   11.9600   15.3497   22.5095 C   0  0  0  0  0  0  0  0  0  0  0  0
   11.5833   15.9146   21.1559 C   0  0  0  0  0  0  0  0  0  0  0  0
   10.2880   15.2978   20.6591 C   0  0  0  0  0  0  0  0  0  0  0  0
    9.1879   15.2821   21.7285 C   0  0  0  0  0  0  0  0  0  0  0  0
  1  2  1  0
  2  3  1  0
  3  4  1  6
  3  5  1  0
  5  6  1  6
  5  7  1  0
  7  8  1  0
  8  9  1  0
  9 10  1  0
  9 11  1  0
  3 12  1  0
 12 13  1  0
 13 14  1  0
 14 15  1  0
 15 16  1  0
 16 17  1  0
 17 12  1  0
M  END
>  <inchikey>  (607) 
QVLGSSQYZVYUGJ-UHFFFAOYSA-N

>  <energy_score>  (607) 
-50.990429

>  <subsites>  (607) 
1 - Active Site

>  <alias>  (607) 
C8161-P153

>  <tags>  (607) 
openbind_a71ev2a_c1_scaffolds,BulkDock Fragalysis export,openbind_a71ev2a_c1_knitwork_impure,fragmenstein_placed

>  <distance_score>  (607) 
0.937124

>  <placement_batch>  (607) 
openbind_a71ev2a_c1_knitwork_impure

>  <name>  (607) 
C8161-P153

>  <ref_mols>  (607) 
A3207a,A0719a

>  <smiles>  (607) 
CC[C@](C)([C@H](O)COC(C)C)N1CCCCC1

>  <HIPPO Compound ID>  (607) 
11631

>  <HIPPO Pose ID>  (607) 
458873

>  <ref_pdb>  (607) 
A5036b

$$$$
C8173-P153
     RDKit          3D

 17 17  0  0  0  0  0  0  0  0999 V2000
    7.8253   13.3831   22.4149 O   0  0  0  0  0  0  0  0  0  0  0  0
    8.5720   14.0255   23.0447 C   0  0  0  0  0  0  0  0  0  0  0  0
    9.3937   15.2893   22.6538 N   0  0  0  0  0  0  0  0  0  0  0  0
    9.5338   15.9574   21.3863 C   0  0  0  0  0  0  0  0  0  0  0  0
   10.4820   15.1416   20.5271 C   0  0  0  0  0  0  0  0  0  0  0  0
   10.5080   15.6206   19.1059 C   0  0  0  0  0  0  0  0  0  0  0  0
   11.3874   14.8954   18.3842 F   0  0  0  0  0  0  0  0  0  0  0  0
   10.8722   16.9091   19.0475 F   0  0  0  0  0  0  0  0  0  0  0  0
    9.3044   15.5322   18.5153 F   0  0  0  0  0  0  0  0  0  0  0  0
    9.0178   13.6745   24.4786 C   0  0  1  0  0  0  0  0  0  0  0  0
    8.4192   14.4872   25.3977 F   0  0  0  0  0  0  0  0  0  0  0  0
    8.8217   12.2147   24.8975 C   0  0  0  0  0  0  0  0  0  0  0  0
    9.4759   11.2241   23.9272 C   0  0  0  0  0  0  0  0  0  0  0  0
    9.0031    9.7801   24.0862 C   0  0  0  0  0  0  0  0  0  0  0  0
    8.3063    9.5169   25.3332 N   0  0  0  0  0  0  0  0  0  0  0  0
    7.2226   10.4198   25.6734 C   0  0  0  0  0  0  0  0  0  0  0  0
    7.3751   11.8417   25.1457 C   0  0  0  0  0  0  0  0  0  0  0  0
  1  2  2  0
  2  3  1  0
  3  4  1  0
  4  5  1  0
  5  6  1  0
  6  7  1  0
  6  8  1  0
  6  9  1  0
  2 10  1  0
 10 11  1  1
 10 12  1  0
 12 13  1  0
 13 14  1  0
 14 15  1  0
 15 16  1  0
 16 17  1  0
 17 12  1  0
M  END
>  <inchikey>  (608) 
CKCGJIQEJLLOHK-UHFFFAOYSA-N

>  <energy_score>  (608) 
-2.696579

>  <subsites>  (608) 
1 - Active Site

>  <alias>  (608) 
C8173-P153

>  <tags>  (608) 
openbind_a71ev2a_c1_scaffolds,BulkDock Fragalysis export,openbind_a71ev2a_c1_knitwork_impure,fragmenstein_placed

>  <distance_score>  (608) 
0.831821

>  <placement_batch>  (608) 
openbind_a71ev2a_c1_knitwork_impure

>  <name>  (608) 
C8173-P153

>  <ref_mols>  (608) 
A3207a,A0719a

>  <smiles>  (608) 
O=C(NCCC(F)(F)F)[C@@H](F)C1CCNCC1

>  <HIPPO Compound ID>  (608) 
10551

>  <HIPPO Pose ID>  (608) 
458882

>  <ref_pdb>  (608) 
A5036b

$$$$
C8176-P153
     RDKit          3D

 15 15  0  0  0  0  0  0  0  0999 V2000
    7.4276   14.0981   25.0955 C   0  0  0  0  0  0  0  0  0  0  0  0
    8.6238   13.4028   24.4342 C   0  0  2  0  0  0  0  0  0  0  0  0
    9.7529   13.6422   25.2712 O   0  0  0  0  0  0  0  0  0  0  0  0
    8.7135   13.9864   22.9999 C   0  0  0  0  0  0  0  0  0  0  0  0
    7.9282   13.5983   22.1239 O   0  0  0  0  0  0  0  0  0  0  0  0
    9.7405   15.0726   22.7615 C   0  0  0  0  0  0  0  0  0  0  0  0
    9.8899   15.8720   23.8591 F   0  0  0  0  0  0  0  0  0  0  0  0
    9.4053   15.8880   21.7282 F   0  0  0  0  0  0  0  0  0  0  0  0
   11.4493   14.2447   22.3857 Br  0  0  0  0  0  0  0  0  0  0  0  0
    8.4223   11.8599   24.2909 C   0  0  1  0  0  0  0  0  0  0  0  0
    9.6753   11.2101   23.6918 C   0  0  0  0  0  0  0  0  0  0  0  0
    9.7522    9.6972   23.8030 C   0  0  0  0  0  0  0  0  0  0  0  0
    8.5505    9.0404   24.4190 C   0  0  0  0  0  0  0  0  0  0  0  0
    7.8327    9.7188   25.4915 N   0  0  0  0  0  0  0  0  0  0  0  0
    8.0238   11.1594   25.5782 C   0  0  0  0  0  0  0  0  0  0  0  0
  2  1  1  1
  2  3  1  0
  2  4  1  0
  4  5  2  0
  4  6  1  0
  6  7  1  0
  6  8  1  0
  6  9  1  0
  2 10  1  0
 10 11  1  1
 11 12  1  0
 12 13  1  0
 13 14  1  0
 14 15  1  0
 15 10  1  0
M  END
>  <inchikey>  (609) 
VKCFWKQFXUVIIM-UHFFFAOYSA-N

>  <energy_score>  (609) 
-22.59051

>  <subsites>  (609) 
1 - Active Site

>  <alias>  (609) 
C8176-P153

>  <tags>  (609) 
openbind_a71ev2a_c1_scaffolds,BulkDock Fragalysis export,openbind_a71ev2a_c1_knitwork_impure,fragmenstein_placed

>  <distance_score>  (609) 
0.681917

>  <placement_batch>  (609) 
openbind_a71ev2a_c1_knitwork_impure

>  <name>  (609) 
C8176-P153

>  <ref_mols>  (609) 
A3207a,A0719a

>  <smiles>  (609) 
C[C@](O)(C(=O)C(F)(F)Br)[C@H]1CCCNC1

>  <HIPPO Compound ID>  (609) 
91922

>  <HIPPO Pose ID>  (609) 
458885

>  <ref_pdb>  (609) 
A5036b

$$$$
C2758-P200
     RDKit          3D

 21 22  0  0  0  0  0  0  0  0999 V2000
    6.9623   14.7621   22.9239 C   0  0  0  0  0  0  0  0  0  0  0  0
    5.9547   15.0766   21.9282 N   0  0  0  0  0  0  0  0  0  0  0  0
    4.6078   14.7534   22.3971 C   0  0  0  0  0  0  0  0  0  0  0  0
    3.6581   14.3793   21.2472 C   0  0  0  0  0  0  0  0  0  0  0  0
    2.8410   15.4855   20.8403 O   0  0  0  0  0  0  0  0  0  0  0  0
    1.6820   15.1590   20.0631 C   0  0  0  0  0  0  0  0  0  0  0  0
    0.6210   14.4776   20.9556 C   0  0  0  0  0  0  0  0  0  0  0  0
   -0.4078   13.6707   20.3168 N   0  0  0  0  0  0  0  0  0  0  0  0
    0.0440   12.7172   19.2948 C   0  0  1  0  0  0  0  0  0  0  0  0
   -0.4488   13.1540   17.9228 C   0  0  0  0  0  0  0  0  0  0  0  0
   -0.5108   14.4768   17.4849 C   0  0  0  0  0  0  0  0  0  0  0  0
   -1.0263   14.7878   16.2269 C   0  0  0  0  0  0  0  0  0  0  0  0
   -1.4753   13.7571   15.4250 C   0  0  0  0  0  0  0  0  0  0  0  0
   -1.4478   12.4642   15.7980 N   0  0  0  0  0  0  0  0  0  0  0  0
   -0.9466   12.2034   17.0301 C   0  0  0  0  0  0  0  0  0  0  0  0
    1.5138   12.2137   19.4250 C   0  0  0  0  0  0  0  0  0  0  0  0
    2.1903   11.6958   18.1727 C   0  0  0  0  0  0  0  0  0  0  0  0
    3.6967   11.6096   18.4376 C   0  0  0  0  0  0  0  0  0  0  0  0
    4.0270   11.2384   19.7836 O   0  0  0  0  0  0  0  0  0  0  0  0
    3.0248   10.4326   20.3838 C   0  0  0  0  0  0  0  0  0  0  0  0
    1.7653   11.2684   20.6080 C   0  0  0  0  0  0  0  0  0  0  0  0
  1  2  1  0
  2  3  1  0
  3  4  1  0
  4  5  1  0
  5  6  1  0
  6  7  1  0
  7  8  1  0
  9  8  1  1
  9 10  1  0
 10 11  2  0
 11 12  1  0
 12 13  2  0
 13 14  1  0
 14 15  2  0
  9 16  1  0
 16 17  1  0
 17 18  1  0
 18 19  1  0
 19 20  1  0
 20 21  1  0
 15 10  1  0
 21 16  1  0
M  END
>  <inchikey>  (610) 
ZNJBUCCMBIUDOR-UHFFFAOYSA-N

>  <energy_score>  (610) 
-9.939152

>  <subsites>  (610) 
1 - Active Site

>  <alias>  (610) 
C2758-P200

>  <tags>  (610) 
openbind_a71ev2a_c1_scaffolds,BulkDock Fragalysis export,openbind_a71ev2a_c1_knitwork_impure,fragmenstein_placed

>  <distance_score>  (610) 
0.974797

>  <placement_batch>  (610) 
openbind_a71ev2a_c1_knitwork_impure

>  <name>  (610) 
C2758-P200

>  <ref_mols>  (610) 
A0473a,A3623a

>  <smiles>  (610) 
CNCCOCCN[C@@H](c1cccnc1)C1CCOCC1

>  <HIPPO Compound ID>  (610) 
43172

>  <HIPPO Pose ID>  (610) 
459207

>  <ref_pdb>  (610) 
A5036b

$$$$
C37375-P551
     RDKit          3D

 21 23  0  0  0  0  0  0  0  0999 V2000
   10.4555   15.0415   21.7001 C   0  0  0  0  0  0  0  0  0  0  0  0
   10.1432   15.0614   23.1887 C   0  0  0  0  0  0  0  0  0  0  0  0
    8.6720   14.7274   23.4566 C   0  0  0  0  0  0  0  0  0  0  0  0
    8.4040   13.3443   23.9921 C   0  0  0  0  0  0  0  0  0  0  0  0
    7.5090   13.1329   24.9703 C   0  0  0  0  0  0  0  0  0  0  0  0
    7.2570   11.8030   25.4895 C   0  0  0  0  0  0  0  0  0  0  0  0
    6.4071   11.6750   26.7370 C   0  0  0  0  0  0  0  0  0  0  0  0
    6.4565   12.5076   27.5520 O   0  0  0  0  0  0  0  0  0  0  0  0
    5.6564   10.3286   26.7283 N   0  0  0  0  0  0  0  0  0  0  0  0
    4.8845    9.6794   27.7596 C   0  0  0  0  0  0  0  0  0  0  0  0
    4.0452   10.6340   28.5964 C   0  0  0  0  0  0  0  0  0  0  0  0
    3.1536    9.8599   29.5309 C   0  0  1  0  0  0  0  0  0  0  0  0
    1.8910    9.0627   29.0102 C   0  0  0  0  0  0  0  0  0  0  0  0
    1.5974    9.1220   30.5505 C   0  0  1  0  0  0  0  0  0  0  0  0
    2.7924    8.4057   31.1982 C   0  0  0  0  0  0  0  0  0  0  0  0
    3.8713    8.9693   30.4321 O   0  0  0  0  0  0  0  0  0  0  0  0
    2.0701   10.6104   30.4014 C   0  0  0  0  0  0  0  0  0  0  0  0
    7.9316   10.7590   24.9799 C   0  0  0  0  0  0  0  0  0  0  0  0
    8.9135   10.9742   23.8917 C   0  0  0  0  0  0  0  0  0  0  0  0
    9.5392   10.0325   23.4272 O   0  0  0  0  0  0  0  0  0  0  0  0
    9.0826   12.2672   23.4690 N   0  0  0  0  0  0  0  0  0  0  0  0
  1  2  1  0
  2  3  1  0
  3  4  1  0
  4  5  2  0
  5  6  1  0
  6  7  1  0
  7  8  2  0
  7  9  1  0
  9 10  1  0
 10 11  1  0
 12 11  1  6
 12 13  1  0
 14 13  1  6
 14 15  1  0
 15 16  1  0
 14 17  1  0
  6 18  2  0
 18 19  1  0
 19 20  2  0
 19 21  1  0
 21  4  1  0
 16 12  1  0
 17 12  1  0
M  END
>  <inchikey>  (611) 
YDXIBDJDTVMVDS-UHFFFAOYSA-N

>  <energy_score>  (611) 
-18.721651

>  <subsites>  (611) 
4 - A0525/A/246/1,1 - Active Site

>  <alias>  (611) 
C37375-P551

>  <tags>  (611) 
openbind_a71ev2a_c1_scaffolds,BulkDock Fragalysis export,openbind_a71ev2a_c1_knitwork_impure,fragmenstein_placed

>  <distance_score>  (611) 
0.97508

>  <placement_batch>  (611) 
openbind_a71ev2a_c1_knitwork_impure

>  <name>  (611) 
C37375-P551

>  <ref_mols>  (611) 
A0525a,A5036b

>  <smiles>  (611) 
CCCc1cc(C(=O)NCC[C@]23C[C@H](CO2)C3)cc(=O)[nH]1

>  <HIPPO Compound ID>  (611) 
17988

>  <HIPPO Pose ID>  (611) 
459533

>  <ref_pdb>  (611) 
A5036b

$$$$
C11061-P25
     RDKit          3D

 25 28  0  0  0  0  0  0  0  0999 V2000
   19.0734   13.1826    2.8687 O   0  0  0  0  0  0  0  0  0  0  0  0
   19.3842   14.1218    2.2473 C   0  0  0  0  0  0  0  0  0  0  0  0
   18.3779   14.9669    1.4610 C   0  0  0  0  0  0  0  0  0  0  0  0
   18.1165   16.3087    2.1023 C   0  0  0  0  0  0  0  0  0  0  0  0
   17.3465   16.3963    3.2681 C   0  0  0  0  0  0  0  0  0  0  0  0
   17.1604   17.6255    3.9098 C   0  0  0  0  0  0  0  0  0  0  0  0
   17.7239   18.7907    3.3752 C   0  0  0  0  0  0  0  0  0  0  0  0
   17.5681   20.0521    4.0170 N   0  0  0  0  0  0  0  0  0  0  0  0
   16.9639   20.3232    5.2276 C   0  0  0  0  0  0  0  0  0  0  0  0
   17.0561   21.6790    5.4344 C   0  0  0  0  0  0  0  0  0  0  0  0
   17.7295   22.1599    4.3043 C   0  0  0  0  0  0  0  0  0  0  0  0
   18.0388   21.1913    3.4427 N   0  0  0  0  0  0  0  0  0  0  0  0
   18.4590   18.7113    2.1842 C   0  0  0  0  0  0  0  0  0  0  0  0
   18.6552   17.4795    1.5553 C   0  0  0  0  0  0  0  0  0  0  0  0
   20.7791   14.7543    2.0134 N   0  0  0  0  0  0  0  0  0  0  0  0
   22.0856   14.3090    2.4160 C   0  0  0  0  0  0  0  0  0  0  0  0
   22.7374   13.6950    1.2341 C   0  0  0  0  0  0  0  0  0  0  0  0
   22.2892   13.7073   -0.0095 N   0  0  0  0  0  0  0  0  0  0  0  0
   23.1895   13.0435   -0.8032 N   0  0  0  0  0  0  0  0  0  0  0  0
   24.1813   12.6506   -0.0378 C   0  0  0  0  0  0  0  0  0  0  0  0
   23.9382   13.0414    1.2518 N   0  0  0  0  0  0  0  0  0  0  0  0
   24.8777   12.8925    2.3419 C   0  0  0  0  0  0  0  0  0  0  0  0
   26.0175   11.9234    2.0103 C   0  0  0  0  0  0  0  0  0  0  0  0
   26.5274   12.1252    0.5816 C   0  0  0  0  0  0  0  0  0  0  0  0
   25.4020   11.9067   -0.4308 C   0  0  0  0  0  0  0  0  0  0  0  0
  1  2  2  0
  2  3  1  0
  3  4  1  0
  4  5  2  0
  5  6  1  0
  6  7  2  0
  7  8  1  0
  8  9  1  0
  9 10  2  0
 10 11  1  0
 11 12  2  0
  7 13  1  0
 13 14  2  0
  2 15  1  0
 15 16  1  0
 16 17  1  0
 17 18  2  0
 18 19  1  0
 19 20  2  0
 20 21  1  0
 21 22  1  0
 22 23  1  0
 23 24  1  0
 24 25  1  0
 14  4  1  0
 21 17  1  0
 12  8  1  0
 25 20  1  0
M  END
>  <inchikey>  (612) 
NPIYBZYEPOASSM-UHFFFAOYSA-N

>  <energy_score>  (612) 
-28.604921

>  <subsites>  (612) 
6 - A0486/A/147/1,3 - A0541/A/147/1

>  <alias>  (612) 
C11061-P25

>  <tags>  (612) 
openbind_a71ev2a_c1_scaffolds,BulkDock Fragalysis export,openbind_a71ev2a_c1_knitwork_impure,fragmenstein_placed

>  <distance_score>  (612) 
0.655815

>  <placement_batch>  (612) 
openbind_a71ev2a_c1_knitwork_impure

>  <name>  (612) 
C11061-P25

>  <ref_mols>  (612) 
A0541a,A0239a

>  <smiles>  (612) 
O=C(Cc1ccc(-n2cccn2)cc1)NCc1nnc2n1CCCC2

>  <HIPPO Compound ID>  (612) 
16894

>  <HIPPO Pose ID>  (612) 
459543

>  <ref_pdb>  (612) 
A5036b

$$$$
C11211-P161
     RDKit          3D

 13 13  0  0  0  0  0  0  0  0999 V2000
    7.5312   13.9743   22.6925 C   0  0  0  0  0  0  0  0  0  0  0  0
    8.8662   13.7986   23.4114 C   0  0  1  0  0  0  0  0  0  0  0  0
    9.6890   15.0812   23.2357 C   0  0  0  0  0  0  0  0  0  0  0  0
   11.0855   14.8809   23.6324 C   0  0  0  0  0  0  0  0  0  0  0  0
   12.1907   14.6927   23.9288 N   0  0  0  0  0  0  0  0  0  0  0  0
    8.6117   13.4878   24.8880 C   0  0  0  0  0  0  0  0  0  0  0  0
    8.9455   14.2261   25.8129 O   0  0  0  0  0  0  0  0  0  0  0  0
    7.8895   12.2452   25.2282 C   0  0  0  0  0  0  0  0  0  0  0  0
    8.1961   11.0157   24.6529 C   0  0  0  0  0  0  0  0  0  0  0  0
    7.4854    9.8921   25.0622 C   0  0  0  0  0  0  0  0  0  0  0  0
    6.4913   10.0447   26.0194 C   0  0  0  0  0  0  0  0  0  0  0  0
    6.1830   11.2213   26.6052 N   0  0  0  0  0  0  0  0  0  0  0  0
    6.8880   12.3003   26.1903 C   0  0  0  0  0  0  0  0  0  0  0  0
  2  1  1  6
  2  3  1  0
  3  4  1  0
  4  5  3  0
  2  6  1  0
  6  7  2  0
  6  8  1  0
  8  9  2  0
  9 10  1  0
 10 11  2  0
 11 12  1  0
 12 13  2  0
 13  8  1  0
M  END
>  <inchikey>  (613) 
WKWSTPQELFYSBR-UHFFFAOYSA-N

>  <energy_score>  (613) 
-20.638873

>  <subsites>  (613) 
1 - Active Site

>  <alias>  (613) 
C11211-P161

>  <tags>  (613) 
openbind_a71ev2a_c1_scaffolds,BulkDock Fragalysis export,openbind_a71ev2a_c1_knitwork_impure,fragmenstein_placed

>  <distance_score>  (613) 
0.935487

>  <placement_batch>  (613) 
openbind_a71ev2a_c1_knitwork_impure

>  <name>  (613) 
C11211-P161

>  <ref_mols>  (613) 
A3229a,A1779a

>  <smiles>  (613) 
C[C@@H](CC#N)C(=O)c1cccnc1

>  <HIPPO Compound ID>  (613) 
7512

>  <HIPPO Pose ID>  (613) 
459782

>  <ref_pdb>  (613) 
A5036b

$$$$
C11216-P161
     RDKit          3D

 13 13  0  0  0  0  0  0  0  0999 V2000
   11.9971   15.1514   22.8506 C   0  0  0  0  0  0  0  0  0  0  0  0
   10.9255   14.8801   23.8942 C   0  0  0  0  0  0  0  0  0  0  0  0
   11.1049   15.7766   25.1114 C   0  0  0  0  0  0  0  0  0  0  0  0
    9.2961   15.1495   23.1255 S   0  0  0  0  0  0  0  0  0  0  0  0
    8.5391   13.5527   23.4997 C   0  0  0  0  0  0  0  0  0  0  0  0
    8.3407   13.3179   24.9855 C   0  0  0  0  0  0  0  0  0  0  0  0
    8.7310   14.0261   25.9100 O   0  0  0  0  0  0  0  0  0  0  0  0
    7.6011   12.1101   25.3552 C   0  0  0  0  0  0  0  0  0  0  0  0
    7.9296   10.8638   24.8379 C   0  0  0  0  0  0  0  0  0  0  0  0
    7.2189    9.7615   25.2860 C   0  0  0  0  0  0  0  0  0  0  0  0
    6.2071    9.9499   26.2188 C   0  0  0  0  0  0  0  0  0  0  0  0
    5.8836   11.1478   26.7488 N   0  0  0  0  0  0  0  0  0  0  0  0
    6.5913   12.2094   26.3023 C   0  0  0  0  0  0  0  0  0  0  0  0
  1  2  1  0
  2  3  1  0
  2  4  1  0
  4  5  1  0
  5  6  1  0
  6  7  2  0
  6  8  1  0
  8  9  2  0
  9 10  1  0
 10 11  2  0
 11 12  1  0
 12 13  2  0
 13  8  1  0
M  END
>  <inchikey>  (614) 
LZCWESDQKOJPRL-UHFFFAOYSA-N

>  <energy_score>  (614) 
-15.927793

>  <subsites>  (614) 
1 - Active Site

>  <alias>  (614) 
C11216-P161

>  <tags>  (614) 
openbind_a71ev2a_c1_scaffolds,BulkDock Fragalysis export,openbind_a71ev2a_c1_knitwork_impure,fragmenstein_placed

>  <distance_score>  (614) 
0.598188

>  <placement_batch>  (614) 
openbind_a71ev2a_c1_knitwork_impure

>  <name>  (614) 
C11216-P161

>  <ref_mols>  (614) 
A3229a,A1779a

>  <smiles>  (614) 
CC(C)SCC(=O)c1cccnc1

>  <HIPPO Compound ID>  (614) 
4805

>  <HIPPO Pose ID>  (614) 
459783

>  <ref_pdb>  (614) 
A5036b

$$$$
C11228-P161
     RDKit          3D

 17 17  0  0  0  0  0  0  0  0999 V2000
    8.3893   14.5411   25.9121 C   0  0  0  0  0  0  0  0  0  0  0  0
    8.6836   13.4417   24.8748 C   0  0  2  0  0  0  0  0  0  0  0  0
    8.4436   13.9620   23.4396 C   0  0  0  0  0  0  0  0  0  0  0  0
    7.8115   13.3215   22.5946 O   0  0  0  0  0  0  0  0  0  0  0  0
    9.0374   15.3321   23.1137 C   0  0  0  0  0  0  0  0  0  0  0  0
    9.4960   15.5218   21.6527 C   0  0  1  0  0  0  0  0  0  0  0  0
    9.2308   16.9733   21.2506 C   0  0  0  0  0  0  0  0  0  0  0  0
   10.9911   15.1288   21.4012 C   0  0  0  0  0  0  0  0  0  0  0  0
   11.9848   16.1160   22.0296 C   0  0  0  0  0  0  0  0  0  0  0  0
   11.2869   15.1050   19.8844 C   0  0  0  0  0  0  0  0  0  0  0  0
   11.2771   13.7582   22.0305 C   0  0  0  0  0  0  0  0  0  0  0  0
    7.9530   12.1333   25.1469 C   0  0  0  0  0  0  0  0  0  0  0  0
    8.4243   10.9529   24.5580 C   0  0  0  0  0  0  0  0  0  0  0  0
    7.7796    9.7584   24.8301 C   0  0  0  0  0  0  0  0  0  0  0  0
    6.7031    9.6539   25.6361 N   0  0  0  0  0  0  0  0  0  0  0  0
    6.2396   10.8009   26.1720 C   0  0  0  0  0  0  0  0  0  0  0  0
    6.8162   12.0438   25.9574 C   0  0  0  0  0  0  0  0  0  0  0  0
  2  1  1  1
  2  3  1  0
  3  4  2  0
  3  5  1  0
  5  6  1  0
  6  7  1  1
  6  8  1  0
  8  9  1  0
  8 10  1  0
  8 11  1  0
  2 12  1  0
 12 13  2  0
 13 14  1  0
 14 15  2  0
 15 16  1  0
 16 17  2  0
 17 12  1  0
M  END
>  <inchikey>  (615) 
BSIJAQBIVQHURV-UHFFFAOYSA-N

>  <energy_score>  (615) 
-39.359307

>  <subsites>  (615) 
1 - Active Site

>  <alias>  (615) 
C11228-P161

>  <tags>  (615) 
openbind_a71ev2a_c1_scaffolds,BulkDock Fragalysis export,openbind_a71ev2a_c1_knitwork_impure,fragmenstein_placed

>  <distance_score>  (615) 
0.986298

>  <placement_batch>  (615) 
openbind_a71ev2a_c1_knitwork_impure

>  <name>  (615) 
C11228-P161

>  <ref_mols>  (615) 
A3229a,A1779a

>  <smiles>  (615) 
C[C@H](C(=O)C[C@@H](C)C(C)(C)C)c1ccncc1

>  <HIPPO Compound ID>  (615) 
5313

>  <HIPPO Pose ID>  (615) 
459785

>  <ref_pdb>  (615) 
A5036b

$$$$
C11229-P161
     RDKit          3D

 15 15  0  0  0  0  0  0  0  0999 V2000
   10.8720   15.3629   19.3794 C   0  0  0  0  0  0  0  0  0  0  0  0
   11.3363   15.6335   20.4523 C   0  0  0  0  0  0  0  0  0  0  0  0
   11.9909   16.0723   21.6872 C   0  0  0  0  0  0  0  0  0  0  0  0
   11.9736   15.0365   22.8067 C   0  0  0  0  0  0  0  0  0  0  0  0
   10.6601   14.9813   23.5852 C   0  0  0  0  0  0  0  0  0  0  0  0
    9.6489   14.0353   22.9410 C   0  0  0  0  0  0  0  0  0  0  0  0
    8.2984   14.0450   23.6348 C   0  0  0  0  0  0  0  0  0  0  0  0
    8.3482   13.5391   25.0596 C   0  0  0  0  0  0  0  0  0  0  0  0
    8.8574   14.1546   25.9934 O   0  0  0  0  0  0  0  0  0  0  0  0
    7.6842   12.2655   25.3508 C   0  0  0  0  0  0  0  0  0  0  0  0
    8.0530   11.0781   24.7284 C   0  0  0  0  0  0  0  0  0  0  0  0
    7.4011    9.9092   25.1021 C   0  0  0  0  0  0  0  0  0  0  0  0
    6.4020    9.9854   26.0651 C   0  0  0  0  0  0  0  0  0  0  0  0
    6.0399   11.1229   26.6962 N   0  0  0  0  0  0  0  0  0  0  0  0
    6.6927   12.2459   26.3212 C   0  0  0  0  0  0  0  0  0  0  0  0
  1  2  3  0
  2  3  1  0
  3  4  1  0
  4  5  1  0
  5  6  1  0
  6  7  1  0
  7  8  1  0
  8  9  2  0
  8 10  1  0
 10 11  2  0
 11 12  1  0
 12 13  2  0
 13 14  1  0
 14 15  2  0
 15 10  1  0
M  END
>  <inchikey>  (616) 
BRBJVKBLSPYJTQ-UHFFFAOYSA-N

>  <energy_score>  (616) 
-11.830992

>  <subsites>  (616) 
1 - Active Site

>  <alias>  (616) 
C11229-P161

>  <tags>  (616) 
openbind_a71ev2a_c1_scaffolds,BulkDock Fragalysis export,openbind_a71ev2a_c1_knitwork_impure,fragmenstein_placed

>  <distance_score>  (616) 
0.719724

>  <placement_batch>  (616) 
openbind_a71ev2a_c1_knitwork_impure

>  <name>  (616) 
C11229-P161

>  <ref_mols>  (616) 
A3229a,A1779a

>  <smiles>  (616) 
C#CCCCCCC(=O)c1cccnc1

>  <HIPPO Compound ID>  (616) 
38131

>  <HIPPO Pose ID>  (616) 
459786

>  <ref_pdb>  (616) 
A5036b

$$$$
C8032-P310
     RDKit          3D

 16 16  0  0  0  0  0  0  0  0999 V2000
    9.7397   16.7274   21.4427 C   0  0  0  0  0  0  0  0  0  0  0  0
    9.6229   15.2729   21.9325 C   0  0  0  0  0  0  0  0  0  0  0  0
    8.3637   14.6775   21.3068 C   0  0  0  0  0  0  0  0  0  0  0  0
    9.5218   15.2372   23.4716 C   0  0  0  0  0  0  0  0  0  0  0  0
    8.8371   14.0720   24.0018 N   0  0  0  0  0  0  0  0  0  0  0  0
    9.3896   12.7164   24.4707 C   0  0  0  0  0  0  0  0  0  0  0  0
   10.4716   12.2901   24.4352 O   0  0  0  0  0  0  0  0  0  0  0  0
    8.3172   11.8532   25.0506 C   0  0  0  0  0  0  0  0  0  0  0  0
    7.3047   12.3553   25.8730 C   0  0  0  0  0  0  0  0  0  0  0  0
    6.3825   11.4780   26.4458 C   0  0  0  0  0  0  0  0  0  0  0  0
    6.5064   10.1244   26.1839 C   0  0  0  0  0  0  0  0  0  0  0  0
    7.4779    9.6047   25.4057 N   0  0  0  0  0  0  0  0  0  0  0  0
    8.3662   10.4772   24.8576 C   0  0  0  0  0  0  0  0  0  0  0  0
   10.8760   14.5334   21.4498 C   0  0  0  0  0  0  0  0  0  0  0  0
   11.9810   15.1016   22.0038 F   0  0  0  0  0  0  0  0  0  0  0  0
   11.0013   14.6774   20.1046 F   0  0  0  0  0  0  0  0  0  0  0  0
  1  2  1  0
  2  3  1  0
  2  4  1  0
  4  5  1  0
  5  6  1  0
  6  7  2  0
  6  8  1  0
  8  9  2  0
  9 10  1  0
 10 11  2  0
 11 12  1  0
 12 13  2  0
  2 14  1  0
 14 15  1  0
 14 16  1  0
 13  8  1  0
M  END
>  <inchikey>  (617) 
SBCUWSBVVFFXMM-UHFFFAOYSA-N

>  <energy_score>  (617) 
-17.200597

>  <subsites>  (617) 
1 - Active Site

>  <alias>  (617) 
C8032-P310

>  <tags>  (617) 
openbind_a71ev2a_c1_scaffolds,BulkDock Fragalysis export,openbind_a71ev2a_c1_knitwork_impure,fragmenstein_placed

>  <distance_score>  (617) 
0.825084

>  <placement_batch>  (617) 
openbind_a71ev2a_c1_knitwork_impure

>  <name>  (617) 
C8032-P310

>  <ref_mols>  (617) 
A1776a,A4333a

>  <smiles>  (617) 
CC(C)(CNC(=O)c1cccnc1)C(F)F

>  <HIPPO Compound ID>  (617) 
7149

>  <HIPPO Pose ID>  (617) 
460007

>  <ref_pdb>  (617) 
A5036b

$$$$
C8041-P310
     RDKit          3D

 19 19  0  0  0  0  0  0  0  0999 V2000
    8.9882   16.3058   21.4661 C   0  0  0  0  0  0  0  0  0  0  0  0
   10.2406   15.5541   21.8777 C   0  0  2  0  0  0  0  0  0  0  0  0
   10.7681   14.5950   20.8152 C   0  0  0  0  0  0  0  0  0  0  0  0
   10.9837   15.2092   19.4649 C   0  0  0  0  0  0  0  0  0  0  0  0
    9.8418   15.3657   18.7818 F   0  0  0  0  0  0  0  0  0  0  0  0
   11.5257   16.4218   19.6007 F   0  0  0  0  0  0  0  0  0  0  0  0
   11.8106   14.4491   18.7167 F   0  0  0  0  0  0  0  0  0  0  0  0
    9.9717   14.7648   23.0620 N   0  0  0  0  0  0  0  0  0  0  0  0
    8.9282   13.6242   23.3069 C   0  0  0  0  0  0  0  0  0  0  0  0
    8.0808   13.2082   22.6113 O   0  0  0  0  0  0  0  0  0  0  0  0
    9.3045   13.0250   24.6956 C   0  0  0  0  0  0  0  0  0  0  0  0
    9.2935   14.0082   25.6554 F   0  0  0  0  0  0  0  0  0  0  0  0
   10.6272   12.6229   24.6661 F   0  0  0  0  0  0  0  0  0  0  0  0
    8.4233   11.8618   25.0669 C   0  0  0  0  0  0  0  0  0  0  0  0
    7.2775   12.0113   25.8524 C   0  0  0  0  0  0  0  0  0  0  0  0
    6.5572   10.8758   26.1821 C   0  0  0  0  0  0  0  0  0  0  0  0
    6.9120    9.6303   25.7999 N   0  0  0  0  0  0  0  0  0  0  0  0
    8.0118    9.5257   25.0237 C   0  0  0  0  0  0  0  0  0  0  0  0
    8.7721   10.5919   24.6141 C   0  0  0  0  0  0  0  0  0  0  0  0
  2  1  1  6
  2  3  1  0
  3  4  1  0
  4  5  1  0
  4  6  1  0
  4  7  1  0
  2  8  1  0
  8  9  1  0
  9 10  2  0
  9 11  1  0
 11 12  1  0
 11 13  1  0
 11 14  1  0
 14 15  2  0
 15 16  1  0
 16 17  2  0
 17 18  1  0
 18 19  2  0
 19 14  1  0
M  END
>  <inchikey>  (618) 
OSHPMDKWLAXVLW-UHFFFAOYSA-N

>  <energy_score>  (618) 
-0.968211

>  <subsites>  (618) 
1 - Active Site

>  <alias>  (618) 
C8041-P310

>  <tags>  (618) 
openbind_a71ev2a_c1_scaffolds,BulkDock Fragalysis export,openbind_a71ev2a_c1_knitwork_impure,fragmenstein_placed

>  <distance_score>  (618) 
0.889681

>  <placement_batch>  (618) 
openbind_a71ev2a_c1_knitwork_impure

>  <name>  (618) 
C8041-P310

>  <ref_mols>  (618) 
A1776a,A4333a

>  <smiles>  (618) 
C[C@H](CC(F)(F)F)NC(=O)C(F)(F)c1ccncc1

>  <HIPPO Compound ID>  (618) 
13570

>  <HIPPO Pose ID>  (618) 
460012

>  <ref_pdb>  (618) 
A5036b

$$$$
C8057-P310
     RDKit          3D

 13 13  0  0  0  0  0  0  0  0999 V2000
   10.2633   11.6681   24.1184 O   0  0  0  0  0  0  0  0  0  0  0  0
    9.2006   12.1374   24.1205 C   0  0  0  0  0  0  0  0  0  0  0  0
    8.6810   13.4245   23.4684 N   0  0  0  0  0  0  0  0  0  0  0  0
    9.3870   14.4675   22.7468 C   0  0  0  0  0  0  0  0  0  0  0  0
   10.4995   15.1849   23.5409 C   0  0  0  0  0  0  0  0  0  0  0  0
   12.0543   14.3261   23.5179 Cl  0  0  0  0  0  0  0  0  0  0  0  0
   10.0209   15.4840   25.2436 Cl  0  0  0  0  0  0  0  0  0  0  0  0
    8.1520   11.4496   24.9089 C   0  0  0  0  0  0  0  0  0  0  0  0
    7.2585   12.1244   25.7444 C   0  0  0  0  0  0  0  0  0  0  0  0
    6.3257   11.3934   26.4785 C   0  0  0  0  0  0  0  0  0  0  0  0
    6.3266   10.0148   26.3556 C   0  0  0  0  0  0  0  0  0  0  0  0
    7.1954    9.3376   25.5763 N   0  0  0  0  0  0  0  0  0  0  0  0
    8.1026   10.0649   24.8784 C   0  0  0  0  0  0  0  0  0  0  0  0
  1  2  2  0
  2  3  1  0
  3  4  1  0
  4  5  1  0
  5  6  1  0
  5  7  1  0
  2  8  1  0
  8  9  2  0
  9 10  1  0
 10 11  2  0
 11 12  1  0
 12 13  2  0
 13  8  1  0
M  END
>  <inchikey>  (619) 
UNJDLWREQAMHBE-UHFFFAOYSA-N

>  <energy_score>  (619) 
-1.107601

>  <subsites>  (619) 
1 - Active Site

>  <alias>  (619) 
C8057-P310

>  <tags>  (619) 
openbind_a71ev2a_c1_scaffolds,BulkDock Fragalysis export,openbind_a71ev2a_c1_knitwork_impure,fragmenstein_placed

>  <distance_score>  (619) 
0.732108

>  <placement_batch>  (619) 
openbind_a71ev2a_c1_knitwork_impure

>  <name>  (619) 
C8057-P310

>  <ref_mols>  (619) 
A1776a,A4333a

>  <smiles>  (619) 
O=C(NCC(Cl)Cl)c1cccnc1

>  <HIPPO Compound ID>  (619) 
11216

>  <HIPPO Pose ID>  (619) 
460019

>  <ref_pdb>  (619) 
A5036b

$$$$
C4749-P445
     RDKit          3D

 11 12  0  0  0  0  0  0  0  0999 V2000
    6.9427   10.8661   25.3753 C   0  0  0  0  0  0  0  0  0  0  0  0
    7.2322    9.5994   25.0805 N   0  0  0  0  0  0  0  0  0  0  0  0
    8.2395    9.6996   24.1905 N   0  0  0  0  0  0  0  0  0  0  0  0
    8.5793   10.9954   23.9202 C   0  0  0  0  0  0  0  0  0  0  0  0
    7.7533   11.7971   24.6854 C   0  0  0  0  0  0  0  0  0  0  0  0
    7.6474   13.2922   24.7681 C   0  0  2  0  0  0  0  0  0  0  0  0
    6.7005   13.8680   23.6871 C   0  0  0  0  0  0  0  0  0  0  0  0
    7.0852   15.1065   23.0140 N   0  0  0  0  0  0  0  0  0  0  0  0
    8.3203   14.9237   22.2498 C   0  0  0  0  0  0  0  0  0  0  0  0
    9.5304   14.3642   23.0162 C   0  0  0  0  0  0  0  0  0  0  0  0
    9.3000   14.0860   24.8085 S   0  0  0  0  0  0  0  0  0  0  0  0
  1  2  2  0
  2  3  1  0
  3  4  1  0
  4  5  2  0
  6  5  1  6
  6  7  1  0
  7  8  1  0
  8  9  1  0
  9 10  1  0
 10 11  1  0
  5  1  1  0
 11  6  1  0
M  END
>  <inchikey>  (620) 
RFJGYVZIVNNSCI-UHFFFAOYSA-N

>  <energy_score>  (620) 
-21.010292

>  <subsites>  (620) 
1 - Active Site

>  <alias>  (620) 
C4749-P445

>  <tags>  (620) 
openbind_a71ev2a_c1_scaffolds,BulkDock Fragalysis export,openbind_a71ev2a_c1_knitwork_impure,fragmenstein_placed

>  <distance_score>  (620) 
0.916349

>  <placement_batch>  (620) 
openbind_a71ev2a_c1_knitwork_impure

>  <name>  (620) 
C4749-P445

>  <ref_mols>  (620) 
A0556a,A4715a

>  <smiles>  (620) 
c1n[nH]cc1[C@@H]1CNCCS1

>  <HIPPO Compound ID>  (620) 
4766

>  <HIPPO Pose ID>  (620) 
460099

>  <ref_pdb>  (620) 
A5036b

$$$$
C4755-P445
     RDKit          3D

 10 11  0  0  0  0  0  0  0  0999 V2000
    6.9437   10.7855   25.2394 C   0  0  0  0  0  0  0  0  0  0  0  0
    7.3016    9.5067   25.1248 N   0  0  0  0  0  0  0  0  0  0  0  0
    8.3158    9.5376   24.2351 N   0  0  0  0  0  0  0  0  0  0  0  0
    8.6065   10.7958   23.8048 C   0  0  0  0  0  0  0  0  0  0  0  0
    7.7138   11.6474   24.4303 C   0  0  0  0  0  0  0  0  0  0  0  0
    7.5465   13.1145   24.2765 C   0  0  2  0  0  0  0  0  0  0  0  0
    7.0458   13.3624   22.9184 N   0  0  0  0  0  0  0  0  0  0  0  0
    7.6918   14.5692   22.4005 C   0  0  0  0  0  0  0  0  0  0  0  0
    9.1692   14.4642   22.7465 C   0  0  0  0  0  0  0  0  0  0  0  0
    9.1298   13.9758   24.4837 S   0  0  0  0  0  0  0  0  0  0  0  0
  1  2  2  0
  2  3  1  0
  3  4  1  0
  4  5  2  0
  6  5  1  6
  6  7  1  0
  7  8  1  0
  8  9  1  0
  9 10  1  0
  5  1  1  0
 10  6  1  0
M  END
>  <inchikey>  (621) 
ZCDJYTCOFFVDFA-UHFFFAOYSA-N

>  <energy_score>  (621) 
-20.002787

>  <subsites>  (621) 
1 - Active Site

>  <alias>  (621) 
C4755-P445

>  <tags>  (621) 
openbind_a71ev2a_c1_scaffolds,BulkDock Fragalysis export,openbind_a71ev2a_c1_knitwork_impure,fragmenstein_placed

>  <distance_score>  (621) 
0.919063

>  <placement_batch>  (621) 
openbind_a71ev2a_c1_knitwork_impure

>  <name>  (621) 
C4755-P445

>  <ref_mols>  (621) 
A0556a,A4715a

>  <smiles>  (621) 
c1n[nH]cc1[C@@H]1NCCS1

>  <HIPPO Compound ID>  (621) 
2044

>  <HIPPO Pose ID>  (621) 
460100

>  <ref_pdb>  (621) 
A5036b

$$$$
C4761-P445
     RDKit          3D

 11 12  0  0  0  0  0  0  0  0999 V2000
    6.8681   10.7892   25.3980 C   0  0  0  0  0  0  0  0  0  0  0  0
    7.1748    9.5549   25.0018 N   0  0  0  0  0  0  0  0  0  0  0  0
    8.1497    9.7435   24.0914 N   0  0  0  0  0  0  0  0  0  0  0  0
    8.4600   11.0631   23.9165 C   0  0  0  0  0  0  0  0  0  0  0  0
    7.6365   11.7896   24.7557 C   0  0  0  0  0  0  0  0  0  0  0  0
    7.5885   13.2660   25.0349 C   0  0  1  0  0  0  0  0  0  0  0  0
    8.8643   14.0317   24.6368 C   0  0  0  0  0  0  0  0  0  0  0  0
    9.0026   14.3869   22.8559 S   0  0  0  0  0  0  0  0  0  0  0  0
    7.3696   15.1559   22.6500 C   0  0  0  0  0  0  0  0  0  0  0  0
    6.2736   14.2438   23.1716 C   0  0  0  0  0  0  0  0  0  0  0  0
    6.3245   13.8706   24.5880 N   0  0  0  0  0  0  0  0  0  0  0  0
  1  2  2  0
  2  3  1  0
  3  4  1  0
  4  5  2  0
  6  5  1  6
  6  7  1  0
  7  8  1  0
  8  9  1  0
  9 10  1  0
 10 11  1  0
  5  1  1  0
 11  6  1  0
M  END
>  <inchikey>  (622) 
UHCYCFVXMGQYLA-UHFFFAOYSA-N

>  <energy_score>  (622) 
-32.396947

>  <subsites>  (622) 
1 - Active Site

>  <alias>  (622) 
C4761-P445

>  <tags>  (622) 
openbind_a71ev2a_c1_scaffolds,BulkDock Fragalysis export,openbind_a71ev2a_c1_knitwork_impure,fragmenstein_placed

>  <distance_score>  (622) 
0.738292

>  <placement_batch>  (622) 
openbind_a71ev2a_c1_knitwork_impure

>  <name>  (622) 
C4761-P445

>  <ref_mols>  (622) 
A0556a,A4715a

>  <smiles>  (622) 
c1n[nH]cc1[C@H]1CSCCN1

>  <HIPPO Compound ID>  (622) 
7417

>  <HIPPO Pose ID>  (622) 
460103

>  <ref_pdb>  (622) 
A5036b

$$$$
C4763-P445
     RDKit          3D

 11 12  0  0  0  0  0  0  0  0999 V2000
    6.0838   13.4452   25.6916 C   0  0  0  0  0  0  0  0  0  0  0  0
    7.2688   13.0495   25.1865 C   0  0  0  0  0  0  0  0  0  0  0  0
    7.5653   11.6898   24.8629 C   0  0  0  0  0  0  0  0  0  0  0  0
    6.9360   10.5307   25.3625 C   0  0  0  0  0  0  0  0  0  0  0  0
    7.4493    9.4089   24.8627 N   0  0  0  0  0  0  0  0  0  0  0  0
    8.4033    9.8417   24.0150 N   0  0  0  0  0  0  0  0  0  0  0  0
    8.5166   11.2078   23.9917 C   0  0  0  0  0  0  0  0  0  0  0  0
    8.3892   14.0493   24.9885 C   0  0  0  0  0  0  0  0  0  0  0  0
    8.2403   15.2578   25.8336 N   0  0  0  0  0  0  0  0  0  0  0  0
    6.9063   15.8381   25.5951 C   0  0  0  0  0  0  0  0  0  0  0  0
    5.7891   14.8801   26.0287 C   0  0  0  0  0  0  0  0  0  0  0  0
  1  2  2  0
  2  3  1  0
  3  4  1  0
  4  5  2  0
  5  6  1  0
  6  7  1  0
  2  8  1  0
  8  9  1  0
  9 10  1  0
 10 11  1  0
 11  1  1  0
  7  3  2  0
M  END
>  <inchikey>  (623) 
OMEWLDYIFBMQQV-UHFFFAOYSA-N

>  <energy_score>  (623) 
-23.744951

>  <subsites>  (623) 
1 - Active Site

>  <alias>  (623) 
C4763-P445

>  <tags>  (623) 
openbind_a71ev2a_c1_scaffolds,BulkDock Fragalysis export,openbind_a71ev2a_c1_knitwork_impure,fragmenstein_placed

>  <distance_score>  (623) 
0.97885

>  <placement_batch>  (623) 
openbind_a71ev2a_c1_knitwork_impure

>  <name>  (623) 
C4763-P445

>  <ref_mols>  (623) 
A0556a,A4715a

>  <smiles>  (623) 
C1=C(c2cn[nH]c2)CNCC1

>  <HIPPO Compound ID>  (623) 
12946

>  <HIPPO Pose ID>  (623) 
460105

>  <ref_pdb>  (623) 
A5036b

$$$$
C92804-P51
     RDKit          3D

 21 23  0  0  0  0  0  0  0  0999 V2000
    9.8074   14.1191    0.3532 C   0  0  0  0  0  0  0  0  0  0  0  0
    8.6911   13.1863    0.4900 N   0  0  0  0  0  0  0  0  0  0  0  0
    8.5993   12.1112   -0.5031 C   0  0  0  0  0  0  0  0  0  0  0  0
    8.8966   10.7282    0.0749 C   0  0  1  0  0  0  0  0  0  0  0  0
   10.3553   10.5426    0.5127 C   0  0  0  0  0  0  0  0  0  0  0  0
   11.2631   10.4437   -0.6078 N   0  0  0  0  0  0  0  0  0  0  0  0
   12.1546   11.5103   -1.2701 C   0  0  0  0  0  0  0  0  0  0  0  0
   12.3566   12.6178   -0.9701 O   0  0  0  0  0  0  0  0  0  0  0  0
   12.8580   10.9773   -2.4647 C   0  0  0  0  0  0  0  0  0  0  0  0
   12.2662   10.1000   -3.3672 C   0  0  0  0  0  0  0  0  0  0  0  0
   13.0198    9.6956   -4.4511 C   0  0  0  0  0  0  0  0  0  0  0  0
   14.2824   10.1203   -4.6608 N   0  0  0  0  0  0  0  0  0  0  0  0
   14.8515   10.9982   -3.7896 N   0  0  0  0  0  0  0  0  0  0  0  0
   14.1436   11.4200   -2.7213 C   0  0  0  0  0  0  0  0  0  0  0  0
    7.9302   10.4725    1.2320 C   0  0  0  0  0  0  0  0  0  0  0  0
    7.8362   11.6404    2.1781 C   0  0  0  0  0  0  0  0  0  0  0  0
    7.3421   11.4097    3.4706 C   0  0  0  0  0  0  0  0  0  0  0  0
    7.2087   12.4538    4.3788 C   0  0  0  0  0  0  0  0  0  0  0  0
    7.5416   13.7437    3.9940 C   0  0  0  0  0  0  0  0  0  0  0  0
    8.0290   13.9785    2.7046 C   0  0  0  0  0  0  0  0  0  0  0  0
    8.1994   12.9385    1.7738 C   0  0  0  0  0  0  0  0  0  0  0  0
  1  2  1  0
  2  3  1  0
  3  4  1  0
  4  5  1  1
  5  6  1  0
  6  7  1  0
  7  8  2  0
  7  9  1  0
  9 10  2  0
 10 11  1  0
 11 12  2  0
 12 13  1  0
 13 14  2  0
  4 15  1  0
 15 16  1  0
 16 17  2  0
 17 18  1  0
 18 19  2  0
 19 20  1  0
 20 21  2  0
 21  2  1  0
 14  9  1  0
 21 16  1  0
M  END
>  <inchikey>  (624) 
VMVJFLKGCWCHKW-UHFFFAOYSA-N

>  <energy_score>  (624) 
-5.694979

>  <subsites>  (624) 
6 - A0486/A/147/1,3 - A0541/A/147/1

>  <alias>  (624) 
C92804-P51

>  <tags>  (624) 
openbind_a71ev2a_c1_scaffolds,BulkDock Fragalysis export,openbind_a71ev2a_c1_knitwork_impure,fragmenstein_placed

>  <distance_score>  (624) 
0.417978

>  <placement_batch>  (624) 
openbind_a71ev2a_c1_knitwork_impure

>  <name>  (624) 
C92804-P51

>  <ref_mols>  (624) 
A0239a,A0586a

>  <smiles>  (624) 
CN1C[C@@H](CNC(=O)c2ccnnc2)Cc2ccccc21

>  <HIPPO Compound ID>  (624) 
25127

>  <HIPPO Pose ID>  (624) 
460345

>  <ref_pdb>  (624) 
A5036b

$$$$
C7585-P199
     RDKit          3D

 13 13  0  0  0  0  0  0  0  0999 V2000
    8.9799    9.8764   23.7611 C   0  0  0  0  0  0  0  0  0  0  0  0
    8.1350   10.4689   24.8815 C   0  0  0  0  0  0  0  0  0  0  0  0
    7.7379   11.9218   24.7436 C   0  0  0  0  0  0  0  0  0  0  0  0
    9.0742   13.0679   24.5157 S   0  0  0  0  0  0  0  0  0  0  0  0
    8.9084   14.1090   25.5042 O   0  0  0  0  0  0  0  0  0  0  0  0
   10.3103   12.3305   24.3940 O   0  0  0  0  0  0  0  0  0  0  0  0
    8.6059   13.7109   22.9973 N   0  0  0  0  0  0  0  0  0  0  0  0
    9.5777   14.6123   22.4472 N   0  0  0  0  0  0  0  0  0  0  0  0
   10.8974   13.9853   22.1873 C   0  0  0  0  0  0  0  0  0  0  0  0
   11.8027   14.7137   21.1768 C   0  0  0  0  0  0  0  0  0  0  0  0
   11.1096   15.0767   19.9442 N   0  0  0  0  0  0  0  0  0  0  0  0
    9.9805   15.9258   20.3079 C   0  0  0  0  0  0  0  0  0  0  0  0
    8.9994   15.1617   21.1958 C   0  0  0  0  0  0  0  0  0  0  0  0
  1  2  1  0
  2  3  1  0
  3  4  1  0
  4  5  2  0
  4  6  2  0
  4  7  1  0
  7  8  1  0
  8  9  1  0
  9 10  1  0
 10 11  1  0
 11 12  1  0
 12 13  1  0
 13  8  1  0
M  END
>  <inchikey>  (625) 
QHXZCCYDVDNOIS-UHFFFAOYSA-N

>  <energy_score>  (625) 
-30.825766

>  <subsites>  (625) 
1 - Active Site

>  <alias>  (625) 
C7585-P199

>  <tags>  (625) 
openbind_a71ev2a_c1_scaffolds,BulkDock Fragalysis export,openbind_a71ev2a_c1_knitwork_impure,fragmenstein_placed

>  <distance_score>  (625) 
0.906062

>  <placement_batch>  (625) 
openbind_a71ev2a_c1_knitwork_impure

>  <name>  (625) 
C7585-P199

>  <ref_mols>  (625) 
A0719a,A3621a

>  <smiles>  (625) 
CCCS(=O)(=O)NN1CCNCC1

>  <HIPPO Compound ID>  (625) 
10845

>  <HIPPO Pose ID>  (625) 
460721

>  <ref_pdb>  (625) 
A0875a

$$$$
C7646-P199
     RDKit          3D

 13 14  0  0  0  0  0  0  0  0999 V2000
    5.6972   15.8396   21.9329 N   0  0  0  0  0  0  0  0  0  0  0  0
    6.8731   14.8165   22.5103 S   0  0  0  0  0  0  0  0  0  0  0  0
    8.1533   15.3593   22.1372 O   0  0  0  0  0  0  0  0  0  0  0  0
    6.4918   13.4947   22.0756 O   0  0  0  0  0  0  0  0  0  0  0  0
    6.5990   15.0450   24.2699 C   0  0  0  0  0  0  0  0  0  0  0  0
    7.6119   14.3575   25.1722 C   0  0  0  0  0  0  0  0  0  0  0  0
    7.3616   12.8489   25.2898 C   0  0  0  0  0  0  0  0  0  0  0  0
    8.5330   12.0507   24.9523 N   0  0  0  0  0  0  0  0  0  0  0  0
    8.2502   10.6138   25.0343 C   0  0  0  0  0  0  0  0  0  0  0  0
    9.4003   10.0494   24.2611 C   0  0  1  0  0  0  0  0  0  0  0  0
    9.3378    9.6616   22.8507 C   0  0  0  0  0  0  0  0  0  0  0  0
    9.7805   11.0668   23.2660 C   0  0  1  0  0  0  0  0  0  0  0  0
    9.0105   12.2822   23.5851 C   0  0  0  0  0  0  0  0  0  0  0  0
  1  2  1  0
  2  3  2  0
  2  4  2  0
  2  5  1  0
  5  6  1  0
  6  7  1  0
  7  8  1  0
  8  9  1  0
 10  9  1  6
 10 11  1  0
 12 11  1  6
 12 13  1  0
 13  8  1  0
 12 10  1  0
M  END
>  <inchikey>  (626) 
UQGFVTTVRVRYFR-UHFFFAOYSA-N

>  <energy_score>  (626) 
-13.163307

>  <subsites>  (626) 
1 - Active Site

>  <alias>  (626) 
C7646-P199

>  <tags>  (626) 
openbind_a71ev2a_c1_scaffolds,BulkDock Fragalysis export,openbind_a71ev2a_c1_knitwork_impure,fragmenstein_placed

>  <distance_score>  (626) 
0.971575

>  <placement_batch>  (626) 
openbind_a71ev2a_c1_knitwork_impure

>  <name>  (626) 
C7646-P199

>  <ref_mols>  (626) 
A0719a,A3621a

>  <smiles>  (626) 
NS(=O)(=O)CCCN1C[C@H]2C[C@H]2C1

>  <HIPPO Compound ID>  (626) 
23295

>  <HIPPO Pose ID>  (626) 
460752

>  <ref_pdb>  (626) 
A0875a

$$$$
C1805-P190
     RDKit          3D

 15 17  0  0  0  0  0  0  0  0999 V2000
   12.4044   15.5274   23.0181 C   0  0  0  0  0  0  0  0  0  0  0  0
   11.1427   16.0712   23.6566 C   0  0  0  0  0  0  0  0  0  0  0  0
    9.8703   15.6431   22.9224 C   0  0  0  0  0  0  0  0  0  0  0  0
    9.3633   14.3185   23.4346 C   0  0  0  0  0  0  0  0  0  0  0  0
    9.8124   13.1220   23.1185 N   0  0  0  0  0  0  0  0  0  0  0  0
    9.0317   12.1447   23.7137 C   0  0  0  0  0  0  0  0  0  0  0  0
    8.0270   12.6239   24.5224 C   0  0  0  0  0  0  0  0  0  0  0  0
    8.0530   14.3279   24.5510 S   0  0  0  0  0  0  0  0  0  0  0  0
    6.9900   11.8957   25.2742 C   0  0  0  0  0  0  0  0  0  0  0  0
    7.2265   10.1092   25.3686 S   0  0  0  0  0  0  0  0  0  0  0  0
    8.2586    9.7334   23.9139 C   0  0  0  0  0  0  0  0  0  0  0  0
    9.3279   10.7130   23.4575 C   0  0  0  0  0  0  0  0  0  0  0  0
   10.0085   15.6757   21.3946 C   0  0  0  0  0  0  0  0  0  0  0  0
   11.3669   15.2010   20.8951 C   0  0  0  0  0  0  0  0  0  0  0  0
   12.4390   15.8945   21.6085 N   0  0  0  0  0  0  0  0  0  0  0  0
  1  2  1  0
  2  3  1  0
  3  4  1  0
  4  5  2  0
  5  6  1  0
  6  7  2  0
  7  8  1  0
  7  9  1  0
  9 10  1  0
 10 11  1  0
 11 12  1  0
  3 13  1  0
 13 14  1  0
 14 15  1  0
 15  1  1  0
  8  4  1  0
 12  6  1  0
M  END
>  <inchikey>  (627) 
VLNCLLLQZBZMCZ-UHFFFAOYSA-N

>  <energy_score>  (627) 
-77.802497

>  <subsites>  (627) 
1 - Active Site

>  <alias>  (627) 
C1805-P190

>  <tags>  (627) 
openbind_a71ev2a_c1_scaffolds,BulkDock Fragalysis export,openbind_a71ev2a_c1_knitwork_impure,fragmenstein_placed

>  <distance_score>  (627) 
0.952918

>  <placement_batch>  (627) 
openbind_a71ev2a_c1_knitwork_impure

>  <name>  (627) 
C1805-P190

>  <ref_mols>  (627) 
A3623a,A3509a

>  <smiles>  (627) 
C1CC(c2nc3c(s2)CSCC3)CCN1

>  <HIPPO Compound ID>  (627) 
25702

>  <HIPPO Pose ID>  (627) 
460783

>  <ref_pdb>  (627) 
A0875a

$$$$
C7054-P192
     RDKit          3D

 16 16  0  0  0  0  0  0  0  0999 V2000
    9.2570   14.5451   21.1265 O   0  0  0  0  0  0  0  0  0  0  0  0
   10.3519   14.9518   21.0004 C   0  0  0  0  0  0  0  0  0  0  0  0
   11.5169   15.0790   22.0480 N   0  0  0  0  0  0  0  0  0  0  0  0
   11.5914   14.6472   23.4153 C   0  0  0  0  0  0  0  0  0  0  0  0
   10.2570   14.5979   24.1494 C   0  0  0  0  0  0  0  0  0  0  0  0
    9.6399   15.9742   24.4016 C   0  0  0  0  0  0  0  0  0  0  0  0
    8.1815   15.9073   24.9021 C   0  0  1  0  0  0  0  0  0  0  0  0
    7.9937   15.0455   26.1555 C   0  0  0  0  0  0  0  0  0  0  0  0
    6.5246   15.0211   26.5993 C   0  0  0  0  0  0  0  0  0  0  0  0
    5.7006   16.1785   26.0317 C   0  0  0  0  0  0  0  0  0  0  0  0
    6.4844   17.4026   26.0577 N   0  0  0  0  0  0  0  0  0  0  0  0
    7.6411   17.3330   25.1573 C   0  0  0  0  0  0  0  0  0  0  0  0
   10.9314   15.4805   19.6457 C   0  0  0  0  0  0  0  0  0  0  0  0
   10.9771   14.5266   18.6764 F   0  0  0  0  0  0  0  0  0  0  0  0
   10.2297   16.5304   19.1469 F   0  0  0  0  0  0  0  0  0  0  0  0
   12.2153   15.9172   19.8015 F   0  0  0  0  0  0  0  0  0  0  0  0
  1  2  2  0
  2  3  1  0
  3  4  1  0
  4  5  1  0
  5  6  1  0
  7  6  1  1
  7  8  1  0
  8  9  1  0
  9 10  1  0
 10 11  1  0
 11 12  1  0
  2 13  1  0
 13 14  1  0
 13 15  1  0
 13 16  1  0
 12  7  1  0
M  END
>  <inchikey>  (628) 
CQSLSCYKXAPOGE-UHFFFAOYSA-N

>  <energy_score>  (628) 
-9.939725

>  <subsites>  (628) 
1 - Active Site,5 - A3181/A/202/1

>  <alias>  (628) 
C7054-P192

>  <tags>  (628) 
openbind_a71ev2a_c1_scaffolds,BulkDock Fragalysis export,openbind_a71ev2a_c1_knitwork_impure,fragmenstein_placed

>  <distance_score>  (628) 
0.655164

>  <placement_batch>  (628) 
openbind_a71ev2a_c1_knitwork_impure

>  <name>  (628) 
C7054-P192

>  <ref_mols>  (628) 
A3510a,A3181b

>  <smiles>  (628) 
O=C(NCCC[C@H]1CCCNC1)C(F)(F)F

>  <HIPPO Compound ID>  (628) 
1719

>  <HIPPO Pose ID>  (628) 
461148

>  <ref_pdb>  (628) 
A0875a

$$$$
C17572-P125
     RDKit          3D

 18 19  0  0  0  0  0  0  0  0999 V2000
   22.4792   -1.4763   20.0801 C   0  0  0  0  0  0  0  0  0  0  0  0
   21.3549   -2.3401   20.2040 O   0  0  0  0  0  0  0  0  0  0  0  0
   20.2076   -1.7782   19.5759 C   0  0  0  0  0  0  0  0  0  0  0  0
   19.0604   -2.7276   19.7532 C   0  0  0  0  0  0  0  0  0  0  0  0
   18.1955   -2.9917   18.8192 N   0  0  0  0  0  0  0  0  0  0  0  0
   17.3050   -3.8775   19.3568 N   0  0  0  0  0  0  0  0  0  0  0  0
   17.5606   -4.2052   20.6808 C   0  0  0  0  0  0  0  0  0  0  0  0
   16.9353   -4.9555   21.4122 O   0  0  0  0  0  0  0  0  0  0  0  0
   18.8260   -3.4819   21.0287 C   0  0  2  0  0  0  0  0  0  0  0  0
   18.7325   -2.6383   22.2792 C   0  0  0  0  0  0  0  0  0  0  0  0
   18.6982   -1.4672   22.2667 O   0  0  0  0  0  0  0  0  0  0  0  0
   18.8007   -3.6377   23.4823 N   0  0  0  0  0  0  0  0  0  0  0  0
   18.7464   -3.4053   24.8536 C   0  0  0  0  0  0  0  0  0  0  0  0
   18.6969   -4.4902   25.7251 C   0  0  0  0  0  0  0  0  0  0  0  0
   18.6552   -4.2661   27.0999 C   0  0  0  0  0  0  0  0  0  0  0  0
   18.6503   -2.9577   27.5552 C   0  0  0  0  0  0  0  0  0  0  0  0
   18.6726   -1.8792   26.7407 N   0  0  0  0  0  0  0  0  0  0  0  0
   18.7487   -2.1302   25.4063 C   0  0  0  0  0  0  0  0  0  0  0  0
  1  2  1  0
  2  3  1  0
  3  4  1  0
  4  5  2  0
  5  6  1  0
  6  7  1  0
  7  8  2  0
  7  9  1  0
  9 10  1  1
 10 11  2  0
 10 12  1  0
 12 13  1  0
 13 14  2  0
 14 15  1  0
 15 16  2  0
 16 17  1  0
 17 18  2  0
  9  4  1  0
 18 13  1  0
M  END
>  <inchikey>  (629) 
NEEWPLZUMQNHBI-UHFFFAOYSA-N

>  <energy_score>  (629) 
-51.039644

>  <subsites>  (629) 
1 - Active Site,2 - A3977/A/202/1

>  <alias>  (629) 
C17572-P125

>  <tags>  (629) 
openbind_a71ev2a_c1_scaffolds,BulkDock Fragalysis export,openbind_a71ev2a_c1_knitwork_impure,fragmenstein_placed

>  <distance_score>  (629) 
0.476046

>  <placement_batch>  (629) 
openbind_a71ev2a_c1_knitwork_impure

>  <name>  (629) 
C17572-P125

>  <ref_mols>  (629) 
A1779a,A0341a

>  <smiles>  (629) 
COCC1=NNC(=O)[C@@H]1C(=O)Nc1cccnc1

>  <HIPPO Compound ID>  (629) 
7660

>  <HIPPO Pose ID>  (629) 
461181

>  <ref_pdb>  (629) 
A0875a

$$$$
C995-P439
     RDKit          3D

 24 27  0  0  0  0  0  0  0  0999 V2000
   19.5476   12.9536    3.5457 O   0  0  0  0  0  0  0  0  0  0  0  0
   19.7399   13.9952    3.0525 C   0  0  0  0  0  0  0  0  0  0  0  0
   18.6137   14.8407    2.4651 C   0  0  0  0  0  0  0  0  0  0  0  0
   18.3837   16.0832    3.2638 C   0  0  0  0  0  0  0  0  0  0  0  0
   19.3282   16.8747    3.7345 N   0  0  0  0  0  0  0  0  0  0  0  0
   18.7761   18.0109    4.3205 C   0  0  0  0  0  0  0  0  0  0  0  0
   19.7243   19.0379    4.8855 C   0  0  0  0  0  0  0  0  0  0  0  0
   19.6918   19.1291    6.4095 C   0  0  0  0  0  0  0  0  0  0  0  0
   18.6119   20.1540    6.7282 C   0  0  0  0  0  0  0  0  0  0  0  0
   18.5518   21.0892    5.5242 C   0  0  0  0  0  0  0  0  0  0  0  0
   19.4363   20.4721    4.4407 C   0  0  0  0  0  0  0  0  0  0  0  0
   17.3949   18.0339    4.3059 C   0  0  0  0  0  0  0  0  0  0  0  0
   16.7773   16.6251    3.5568 S   0  0  0  0  0  0  0  0  0  0  0  0
   21.0672   14.7368    2.7592 N   0  0  0  0  0  0  0  0  0  0  0  0
   22.4266   14.3127    2.9239 C   0  0  0  0  0  0  0  0  0  0  0  0
   22.8782   13.7065    1.6445 C   0  0  0  0  0  0  0  0  0  0  0  0
   22.2571   13.7334    0.4772 N   0  0  0  0  0  0  0  0  0  0  0  0
   23.0258   13.0578   -0.4405 N   0  0  0  0  0  0  0  0  0  0  0  0
   24.1075   12.6399    0.1765 C   0  0  0  0  0  0  0  0  0  0  0  0
   24.0542   13.0272    1.4878 N   0  0  0  0  0  0  0  0  0  0  0  0
   25.1255   12.8519    2.4426 C   0  0  0  0  0  0  0  0  0  0  0  0
   26.2201   11.9027    1.9489 C   0  0  0  0  0  0  0  0  0  0  0  0
   26.5107   12.0942    0.4583 C   0  0  0  0  0  0  0  0  0  0  0  0
   25.2494   11.8747   -0.3795 C   0  0  0  0  0  0  0  0  0  0  0  0
  1  2  2  0
  2  3  1  0
  3  4  1  0
  4  5  2  0
  5  6  1  0
  6  7  1  0
  7  8  1  0
  8  9  1  0
  9 10  1  0
 10 11  1  0
  6 12  2  0
 12 13  1  0
  2 14  1  0
 14 15  1  0
 15 16  1  0
 16 17  2  0
 17 18  1  0
 18 19  2  0
 19 20  1  0
 20 21  1  0
 21 22  1  0
 22 23  1  0
 23 24  1  0
 13  4  1  0
 20 16  1  0
 11  7  1  0
 24 19  1  0
M  END
>  <inchikey>  (630) 
ZBXDTHJRDBKMNJ-UHFFFAOYSA-N

>  <energy_score>  (630) 
-58.236435

>  <subsites>  (630) 
6 - A0486/A/147/1,1 - Active Site

>  <alias>  (630) 
C995-P439

>  <tags>  (630) 
openbind_a71ev2a_c1_scaffolds,BulkDock Fragalysis export,openbind_a71ev2a_c1_knitwork_impure,fragmenstein_placed

>  <distance_score>  (630) 
0.471051

>  <placement_batch>  (630) 
openbind_a71ev2a_c1_knitwork_impure

>  <name>  (630) 
C995-P439

>  <ref_mols>  (630) 
A0239a,A4706a

>  <smiles>  (630) 
O=C(Cc1nc(C2CCCC2)cs1)NCc1nnc2n1CCCC2

>  <HIPPO Compound ID>  (630) 
43550

>  <HIPPO Pose ID>  (630) 
462282

>  <ref_pdb>  (630) 
A0875a

$$$$
C37374-P54
     RDKit          3D

 21 24  0  0  0  0  0  0  0  0999 V2000
   21.3229   -3.3144   18.5020 O   0  0  0  0  0  0  0  0  0  0  0  0
   20.4672   -2.6428   18.9158 C   0  0  0  0  0  0  0  0  0  0  0  0
   20.4943   -1.1833   19.4162 N   0  0  0  0  0  0  0  0  0  0  0  0
   21.5992   -0.2782   19.6000 C   0  0  0  0  0  0  0  0  0  0  0  0
   21.9795   -0.3020   21.0749 C   0  0  0  0  0  0  0  0  0  0  0  0
   23.1583    0.5713   21.3811 C   0  0  1  0  0  0  0  0  0  0  0  0
   24.6469    0.2070   21.0085 C   0  0  0  0  0  0  0  0  0  0  0  0
   24.8690    1.3028   22.1150 C   0  0  1  0  0  0  0  0  0  0  0  0
   24.1607    2.5584   21.5883 C   0  0  0  0  0  0  0  0  0  0  0  0
   22.9660    1.9746   21.0459 O   0  0  0  0  0  0  0  0  0  0  0  0
   23.7316    0.5286   22.8564 C   0  0  0  0  0  0  0  0  0  0  0  0
   19.0877   -3.1516   19.1491 C   0  0  0  0  0  0  0  0  0  0  0  0
   18.1780   -3.5428   18.0936 C   0  0  0  0  0  0  0  0  0  0  0  0
   16.9435   -3.9985   18.3967 C   0  0  0  0  0  0  0  0  0  0  0  0
   15.9458   -4.4783   17.4214 C   0  0  0  0  0  0  0  0  0  0  0  0
   15.4529   -5.9056   17.5280 C   0  0  0  0  0  0  0  0  0  0  0  0
   14.4962   -4.7693   17.7354 C   0  0  0  0  0  0  0  0  0  0  0  0
   16.6100   -4.0627   19.7241 N   0  0  0  0  0  0  0  0  0  0  0  0
   17.4562   -3.8465   20.7742 C   0  0  0  0  0  0  0  0  0  0  0  0
   17.1604   -4.0922   21.9354 O   0  0  0  0  0  0  0  0  0  0  0  0
   18.7797   -3.3157   20.4431 C   0  0  0  0  0  0  0  0  0  0  0  0
  1  2  2  0
  2  3  1  0
  3  4  1  0
  4  5  1  0
  6  5  1  1
  6  7  1  0
  8  7  1  6
  8  9  1  0
  9 10  1  0
  8 11  1  0
  2 12  1  0
 12 13  1  0
 13 14  2  0
 14 15  1  0
 15 16  1  0
 16 17  1  0
 14 18  1  0
 18 19  1  0
 19 20  2  0
 19 21  1  0
 10  6  1  0
 21 12  2  0
 11  6  1  0
 17 15  1  0
M  END
>  <inchikey>  (631) 
XNZBNQSOCXCBBB-UHFFFAOYSA-N

>  <energy_score>  (631) 
-19.701114

>  <subsites>  (631) 
4 - A0525/A/246/1,2 - A3977/A/202/1

>  <alias>  (631) 
C37374-P54

>  <tags>  (631) 
openbind_a71ev2a_c1_scaffolds,BulkDock Fragalysis export,openbind_a71ev2a_c1_knitwork_impure,fragmenstein_placed

>  <distance_score>  (631) 
0.937831

>  <placement_batch>  (631) 
openbind_a71ev2a_c1_knitwork_impure

>  <name>  (631) 
C37374-P54

>  <ref_mols>  (631) 
A0525a,A0341a

>  <smiles>  (631) 
O=C(NCC[C@]12C[C@H](CO1)C2)c1cc(C2CC2)[nH]c(=O)c1

>  <HIPPO Compound ID>  (631) 
20907

>  <HIPPO Pose ID>  (631) 
462474

>  <ref_pdb>  (631) 
A0875a

$$$$
C37377-P54
     RDKit          3D

 19 21  0  0  0  0  0  0  0  0999 V2000
   20.8326   -1.3207   19.5208 O   0  0  0  0  0  0  0  0  0  0  0  0
   20.5868   -2.3400   19.0143 C   0  0  0  0  0  0  0  0  0  0  0  0
   21.4655   -3.2625   18.1492 N   0  0  0  0  0  0  0  0  0  0  0  0
   22.8616   -3.1710   17.8037 C   0  0  0  0  0  0  0  0  0  0  0  0
   23.1857   -3.9241   16.5246 C   0  0  0  0  0  0  0  0  0  0  0  0
   24.6523   -3.8171   16.2059 C   0  0  2  0  0  0  0  0  0  0  0  0
   25.1991   -4.2737   14.7948 C   0  0  0  0  0  0  0  0  0  0  0  0
   26.4343   -3.4856   15.3540 C   0  0  2  0  0  0  0  0  0  0  0  0
   26.8129   -4.2353   16.6394 C   0  0  0  0  0  0  0  0  0  0  0  0
   25.5086   -4.4484   17.2031 O   0  0  0  0  0  0  0  0  0  0  0  0
   25.3454   -2.4525   15.8089 C   0  0  0  0  0  0  0  0  0  0  0  0
   19.2612   -3.0071   19.2115 C   0  0  0  0  0  0  0  0  0  0  0  0
   18.4479   -3.5250   18.1230 C   0  0  0  0  0  0  0  0  0  0  0  0
   17.2591   -4.0577   18.4207 C   0  0  0  0  0  0  0  0  0  0  0  0
   16.1856   -4.8266   17.3553 Cl  0  0  0  0  0  0  0  0  0  0  0  0
   16.8127   -4.1040   19.6966 N   0  0  0  0  0  0  0  0  0  0  0  0
   17.5643   -3.7541   20.7807 C   0  0  0  0  0  0  0  0  0  0  0  0
   17.2191   -4.0031   21.9269 O   0  0  0  0  0  0  0  0  0  0  0  0
   18.8532   -3.0969   20.4889 C   0  0  0  0  0  0  0  0  0  0  0  0
  1  2  2  0
  2  3  1  0
  3  4  1  0
  4  5  1  0
  6  5  1  1
  6  7  1  0
  8  7  1  6
  8  9  1  0
  9 10  1  0
  8 11  1  0
  2 12  1  0
 12 13  1  0
 13 14  2  0
 14 15  1  0
 14 16  1  0
 16 17  1  0
 17 18  2  0
 17 19  1  0
 10  6  1  0
 19 12  2  0
 11  6  1  0
M  END
>  <inchikey>  (632) 
VJCYTBKJYKZSPV-UHFFFAOYSA-N

>  <energy_score>  (632) 
-22.682066

>  <subsites>  (632) 
4 - A0525/A/246/1,2 - A3977/A/202/1

>  <alias>  (632) 
C37377-P54

>  <tags>  (632) 
openbind_a71ev2a_c1_scaffolds,BulkDock Fragalysis export,openbind_a71ev2a_c1_knitwork_impure,fragmenstein_placed

>  <distance_score>  (632) 
0.918347

>  <placement_batch>  (632) 
openbind_a71ev2a_c1_knitwork_impure

>  <name>  (632) 
C37377-P54

>  <ref_mols>  (632) 
A0525a,A0341a

>  <smiles>  (632) 
O=C(NCC[C@]12C[C@H](CO1)C2)c1cc(Cl)[nH]c(=O)c1

>  <HIPPO Compound ID>  (632) 
760

>  <HIPPO Pose ID>  (632) 
462477

>  <ref_pdb>  (632) 
A0875a

$$$$
C1922-P198
     RDKit          3D

 11 12  0  0  0  0  0  0  0  0999 V2000
    6.8275   12.4668   24.6839 C   0  0  0  0  0  0  0  0  0  0  0  0
    7.3702   13.5170   24.1080 N   0  0  0  0  0  0  0  0  0  0  0  0
    8.5312   13.0631   23.5721 C   0  0  0  0  0  0  0  0  0  0  0  0
    9.4059   13.8454   22.9096 N   0  0  0  0  0  0  0  0  0  0  0  0
   10.6293   14.1833   23.6578 C   0  0  0  0  0  0  0  0  0  0  0  0
   11.7874   14.4911   22.7190 C   0  0  0  0  0  0  0  0  0  0  0  0
   11.4667   15.9337   21.6781 S   0  0  0  0  0  0  0  0  0  0  0  0
    9.8473   15.4118   21.0383 C   0  0  0  0  0  0  0  0  0  0  0  0
    8.8697   14.9889   22.1435 C   0  0  0  0  0  0  0  0  0  0  0  0
    8.7003   11.7224   23.8082 C   0  0  0  0  0  0  0  0  0  0  0  0
    7.6113   11.3552   24.5445 N   0  0  0  0  0  0  0  0  0  0  0  0
  1  2  2  0
  2  3  1  0
  3  4  1  0
  4  5  1  0
  5  6  1  0
  6  7  1  0
  7  8  1  0
  8  9  1  0
  3 10  2  0
 10 11  1  0
 11  1  1  0
  9  4  1  0
M  END
>  <inchikey>  (633) 
HUQKWYASCUHDLP-UHFFFAOYSA-N

>  <energy_score>  (633) 
-21.416717

>  <subsites>  (633) 
1 - Active Site

>  <alias>  (633) 
C1922-P198

>  <tags>  (633) 
openbind_a71ev2a_c1_scaffolds,BulkDock Fragalysis export,openbind_a71ev2a_c1_knitwork_impure,fragmenstein_placed

>  <distance_score>  (633) 
0.932444

>  <placement_batch>  (633) 
openbind_a71ev2a_c1_knitwork_impure

>  <name>  (633) 
C1922-P198

>  <ref_mols>  (633) 
A1209a,A3618a

>  <smiles>  (633) 
c1nc(N2CCSCC2)c[nH]1

>  <HIPPO Compound ID>  (633) 
17612

>  <HIPPO Pose ID>  (633) 
463062

>  <ref_pdb>  (633) 
A0875a

$$$$
C7479-P497
     RDKit          3D

 23 24  0  0  0  0  0  0  0  0999 V2000
    3.5032   12.3072   18.0891 C   0  0  0  0  0  0  0  0  0  0  0  0
    3.3819   12.4291   19.6069 C   0  0  0  0  0  0  0  0  0  0  0  0
    2.3672   11.4223   20.1471 C   0  0  0  0  0  0  0  0  0  0  0  0
    3.0288   13.8086   20.0180 C   0  0  0  0  0  0  0  0  0  0  0  0
    2.0418   14.4172   19.2983 O   0  0  0  0  0  0  0  0  0  0  0  0
    1.9525   15.6514   19.8406 C   0  0  0  0  0  0  0  0  0  0  0  0
    2.7611   15.8811   20.8530 N   0  0  0  0  0  0  0  0  0  0  0  0
    3.4370   14.6867   21.0082 C   0  0  0  0  0  0  0  0  0  0  0  0
    4.4013   14.4734   22.1307 C   0  0  0  0  0  0  0  0  0  0  0  0
    5.5611   15.3374   21.9380 N   0  0  0  0  0  0  0  0  0  0  0  0
    7.0564   14.7116   22.3667 S   0  0  0  0  0  0  0  0  0  0  0  0
    6.9738   13.3257   21.9313 O   0  0  0  0  0  0  0  0  0  0  0  0
    7.9596   15.5364   21.5923 O   0  0  0  0  0  0  0  0  0  0  0  0
    6.9615   14.9442   23.8799 N   0  0  0  0  0  0  0  0  0  0  0  0
    8.3335   14.7859   24.5641 S   0  0  2  0  0  0  0  0  0  0  0  0
    8.1069   15.3507   26.2373 C   0  0  0  0  0  0  0  0  0  0  0  0
    9.5471   15.4315   24.1068 O   0  0  0  0  0  0  0  0  0  0  0  0
    8.7621   13.0557   24.8295 C   0  0  0  0  0  0  0  0  0  0  0  0
    9.5318   12.4955   23.6394 C   0  0  0  0  0  0  0  0  0  0  0  0
    9.8448   11.0167   23.7345 C   0  0  0  0  0  0  0  0  0  0  0  0
    8.8147   10.1202   24.3951 C   0  0  0  0  0  0  0  0  0  0  0  0
    7.9925   10.7655   25.4958 C   0  0  0  0  0  0  0  0  0  0  0  0
    7.5646   12.1897   25.1873 C   0  0  0  0  0  0  0  0  0  0  0  0
  1  2  1  0
  2  3  1  0
  2  4  1  0
  4  5  1  0
  5  6  1  0
  6  7  2  0
  7  8  1  0
  8  9  1  0
  9 10  1  0
 10 11  1  0
 11 12  2  0
 11 13  2  0
 11 14  1  0
 14 15  2  0
 15 16  1  1
 15 17  2  0
 15 18  1  0
 18 19  1  0
 19 20  1  0
 20 21  1  0
 21 22  1  0
 22 23  1  0
  8  4  2  0
 23 18  1  0
M  END
>  <inchikey>  (634) 
QMSHCDDWKOOQIQ-UHFFFAOYSA-N

>  <energy_score>  (634) 
-108.27362

>  <subsites>  (634) 
1 - Active Site

>  <alias>  (634) 
C7479-P497

>  <tags>  (634) 
openbind_a71ev2a_c1_scaffolds,BulkDock Fragalysis export,openbind_a71ev2a_c1_knitwork_impure,fragmenstein_placed

>  <distance_score>  (634) 
0.893416

>  <placement_batch>  (634) 
openbind_a71ev2a_c1_knitwork_impure

>  <name>  (634) 
C7479-P497

>  <ref_mols>  (634) 
A3623a,A4877b

>  <smiles>  (634) 
CC(C)c1ocnc1CNS(=O)(=O)N=[S@](C)(=O)C1CCCCC1

>  <HIPPO Compound ID>  (634) 
6610

>  <HIPPO Pose ID>  (634) 
463177

>  <ref_pdb>  (634) 
A0875a

$$$$
C6124-P374
     RDKit          3D

 19 21  0  0  0  0  0  0  0  0999 V2000
    6.1144   15.7974   30.1385 C   0  0  0  0  0  0  0  0  0  0  0  0
    6.9865   15.7865   28.8663 C   0  0  0  0  0  0  0  0  0  0  0  0
    8.2432   14.9509   29.1874 C   0  0  0  0  0  0  0  0  0  0  0  0
    7.4279   17.2259   28.5650 C   0  0  0  0  0  0  0  0  0  0  0  0
    8.5833   17.5645   28.3541 O   0  0  0  0  0  0  0  0  0  0  0  0
    6.4225   18.1276   28.4958 O   0  0  0  0  0  0  0  0  0  0  0  0
    6.2139   15.2651   27.6188 C   0  0  1  0  0  0  0  0  0  0  0  0
    7.0732   15.1766   26.3262 C   0  0  0  0  0  0  0  0  0  0  0  0
    7.4698   13.7636   26.1287 N   0  0  0  0  0  0  0  0  0  0  0  0
    8.0791   13.4339   24.8676 C   0  0  0  0  0  0  0  0  0  0  0  0
    8.7633   12.0511   24.7731 C   0  0  0  0  0  0  0  0  0  0  0  0
    9.9334   12.7460   24.0516 C   0  0  0  0  0  0  0  0  0  0  0  0
    9.5036   14.0450   24.7523 C   0  0  0  0  0  0  0  0  0  0  0  0
    6.4381   13.0480   26.7928 C   0  0  0  0  0  0  0  0  0  0  0  0
    6.1312   11.7033   26.6751 C   0  0  0  0  0  0  0  0  0  0  0  0
    5.1043   11.1630   27.4556 C   0  0  0  0  0  0  0  0  0  0  0  0
    4.3728   11.9752   28.3291 C   0  0  0  0  0  0  0  0  0  0  0  0
    4.6668   13.3341   28.4379 C   0  0  0  0  0  0  0  0  0  0  0  0
    5.7107   13.8506   27.6806 C   0  0  0  0  0  0  0  0  0  0  0  0
  1  2  1  0
  2  3  1  0
  2  4  1  0
  4  5  2  0
  4  6  1  0
  7  2  1  1
  7  8  1  0
  8  9  1  0
  9 10  1  0
 10 11  1  0
 11 12  1  0
 12 13  1  0
  9 14  1  0
 14 15  2  0
 15 16  1  0
 16 17  2  0
 17 18  1  0
 18 19  2  0
 19  7  1  0
 13 10  1  0
 19 14  1  0
M  END
>  <inchikey>  (635) 
IZKZLQCBDVJIRW-UHFFFAOYSA-N

>  <energy_score>  (635) 
-39.1097

>  <subsites>  (635) 
1 - Active Site

>  <alias>  (635) 
C6124-P374

>  <tags>  (635) 
openbind_a71ev2a_c1_scaffolds,BulkDock Fragalysis export,openbind_a71ev2a_c1_knitwork_impure,fragmenstein_placed

>  <distance_score>  (635) 
0.927793

>  <placement_batch>  (635) 
openbind_a71ev2a_c1_knitwork_impure

>  <name>  (635) 
C6124-P374

>  <ref_mols>  (635) 
A1778a,A4463a

>  <smiles>  (635) 
CC(C)(C(=O)O)[C@H]1CN(C2CCC2)c2ccccc21

>  <HIPPO Compound ID>  (635) 
92920

>  <HIPPO Pose ID>  (635) 
463285

>  <ref_pdb>  (635) 
A0875a

$$$$
C90727-P22
     RDKit          3D

 11 11  0  0  0  0  0  0  0  0999 V2000
    5.0421   14.3382   26.9725 C   0  0  0  0  0  0  0  0  0  0  0  0
    6.2887   14.1905   26.0694 C   0  0  0  0  0  0  0  0  0  0  0  0
    7.4604   14.9019   26.7674 C   0  0  0  0  0  0  0  0  0  0  0  0
    5.9892   14.8533   24.7059 C   0  0  0  0  0  0  0  0  0  0  0  0
    6.5879   12.7009   25.7961 C   0  0  2  0  0  0  0  0  0  0  0  0
    6.5236   11.8147   27.0311 C   0  0  0  0  0  0  0  0  0  0  0  0
    6.4880   10.3943   26.5394 C   0  0  0  0  0  0  0  0  0  0  0  0
    7.5711   10.1038   25.6324 N   0  0  0  0  0  0  0  0  0  0  0  0
    8.1823   10.9761   24.7887 C   0  0  0  0  0  0  0  0  0  0  0  0
    8.9782   10.5548   23.9534 O   0  0  0  0  0  0  0  0  0  0  0  0
    7.9023   12.4422   25.0215 C   0  0  0  0  0  0  0  0  0  0  0  0
  1  2  1  0
  2  3  1  0
  2  4  1  0
  5  2  1  1
  5  6  1  0
  6  7  1  0
  7  8  1  0
  8  9  1  0
  9 10  2  0
  9 11  1  0
 11  5  1  0
M  END
>  <inchikey>  (636) 
XRCDSEZPXYCOLD-UHFFFAOYSA-N

>  <energy_score>  (636) 
-22.708181

>  <subsites>  (636) 
1 - Active Site

>  <alias>  (636) 
C90727-P22

>  <tags>  (636) 
openbind_a71ev2a_c1_scaffolds,BulkDock Fragalysis export,openbind_a71ev2a_c1_knitwork_impure,fragmenstein_placed

>  <distance_score>  (636) 
0.999992

>  <placement_batch>  (636) 
openbind_a71ev2a_c1_knitwork_impure

>  <name>  (636) 
C90727-P22

>  <ref_mols>  (636) 
A4311a,A0528a

>  <smiles>  (636) 
CC(C)(C)[C@@H]1CCNC(=O)C1

>  <HIPPO Compound ID>  (636) 
28323

>  <HIPPO Pose ID>  (636) 
463852

>  <ref_pdb>  (636) 
A0875a

$$$$
C90672-P296
     RDKit          3D

 11 12  0  0  0  0  0  0  0  0999 V2000
    4.8916   13.5434   26.7957 C   0  0  0  0  0  0  0  0  0  0  0  0
    6.2068   13.8840   26.0609 C   0  0  0  0  0  0  0  0  0  0  0  0
    7.1206   14.6083   27.0684 C   0  0  0  0  0  0  0  0  0  0  0  0
    5.8548   14.8701   24.9293 C   0  0  0  0  0  0  0  0  0  0  0  0
    6.8762   12.6073   25.4255 C   0  0  2  0  0  0  0  0  0  0  0  0
    6.8103   11.3802   26.3422 C   0  0  0  0  0  0  0  0  0  0  0  0
    7.3170   10.1050   25.6907 C   0  0  0  0  0  0  0  0  0  0  0  0
    8.5428   10.2574   24.8600 C   0  0  1  0  0  0  0  0  0  0  0  0
    8.3385   10.8361   23.5682 O   0  0  0  0  0  0  0  0  0  0  0  0
    9.0522   11.6294   24.4951 C   0  0  1  0  0  0  0  0  0  0  0  0
    8.3391   12.8498   24.9757 C   0  0  0  0  0  0  0  0  0  0  0  0
  1  2  1  0
  2  3  1  0
  2  4  1  0
  5  2  1  1
  5  6  1  0
  6  7  1  0
  8  7  1  1
  8  9  1  0
  9 10  1  0
 10 11  1  1
 11  5  1  0
 10  8  1  0
M  END
>  <inchikey>  (637) 
DVPZBLCJPRLATH-UHFFFAOYSA-N

>  <energy_score>  (637) 
-36.349965

>  <subsites>  (637) 
1 - Active Site

>  <alias>  (637) 
C90672-P296

>  <tags>  (637) 
openbind_a71ev2a_c1_scaffolds,BulkDock Fragalysis export,openbind_a71ev2a_c1_knitwork_impure,fragmenstein_placed

>  <distance_score>  (637) 
0.955809

>  <placement_batch>  (637) 
openbind_a71ev2a_c1_knitwork_impure

>  <name>  (637) 
C90672-P296

>  <ref_mols>  (637) 
A4311a,A0528a

>  <smiles>  (637) 
CC(C)(C)[C@@H]1CC[C@H]2O[C@H]2C1

>  <HIPPO Compound ID>  (637) 
92925

>  <HIPPO Pose ID>  (637) 
463892

>  <ref_pdb>  (637) 
A0875a

$$$$
C90689-P296
     RDKit          3D

 10 10  0  0  0  0  0  0  0  0999 V2000
    5.7337   14.4516   24.7445 C   0  0  0  0  0  0  0  0  0  0  0  0
    6.1571   14.1900   26.1851 C   0  0  0  0  0  0  0  0  0  0  0  0
    5.3578   13.0564   26.8296 C   0  0  0  0  0  0  0  0  0  0  0  0
    7.6794   14.0653   26.3727 C   0  0  0  0  0  0  0  0  0  0  0  0
    8.5086   13.0390   25.5750 C   0  0  1  0  0  0  0  0  0  0  0  0
    7.8574   11.7220   25.1947 C   0  0  0  0  0  0  0  0  0  0  0  0
    8.9895   10.9280   24.0251 S   0  0  0  0  0  0  0  0  0  0  0  0
    9.7161   12.4753   23.4207 C   0  0  0  0  0  0  0  0  0  0  0  0
    9.1547   13.5560   24.3037 C   0  0  0  0  0  0  0  0  0  0  0  0
    9.3283   14.7456   24.0626 O   0  0  0  0  0  0  0  0  0  0  0  0
  1  2  1  0
  2  3  1  0
  2  4  1  0
  5  4  1  6
  5  6  1  0
  6  7  1  0
  7  8  1  0
  8  9  1  0
  9 10  2  0
  9  5  1  0
M  END
>  <inchikey>  (638) 
HWBLWNNWIGXBNO-UHFFFAOYSA-N

>  <energy_score>  (638) 
-17.761523

>  <subsites>  (638) 
1 - Active Site

>  <alias>  (638) 
C90689-P296

>  <tags>  (638) 
openbind_a71ev2a_c1_scaffolds,BulkDock Fragalysis export,openbind_a71ev2a_c1_knitwork_impure,fragmenstein_placed

>  <distance_score>  (638) 
0.784423

>  <placement_batch>  (638) 
openbind_a71ev2a_c1_knitwork_impure

>  <name>  (638) 
C90689-P296

>  <ref_mols>  (638) 
A4311a,A0528a

>  <smiles>  (638) 
CC(C)C[C@H]1CSCC1=O

>  <HIPPO Compound ID>  (638) 
4658

>  <HIPPO Pose ID>  (638) 
463902

>  <ref_pdb>  (638) 
A0875a

$$$$
C90691-P22
     RDKit          3D

 11 11  0  0  0  0  0  0  0  0999 V2000
   10.5380   15.0158   21.3528 C   0  0  0  0  0  0  0  0  0  0  0  0
   11.0724   14.9725   22.7758 C   0  0  0  0  0  0  0  0  0  0  0  0
   12.3741   14.1725   22.8544 C   0  0  0  0  0  0  0  0  0  0  0  0
    9.9915   14.5880   23.8059 C   0  0  0  0  0  0  0  0  0  0  0  0
    9.2105   13.2616   23.6580 C   0  0  1  0  0  0  0  0  0  0  0  0
   10.1553   12.0664   23.6656 C   0  0  0  0  0  0  0  0  0  0  0  0
    9.4436   10.7328   23.7176 C   0  0  0  0  0  0  0  0  0  0  0  0
    8.4554   10.6312   24.8439 C   0  0  0  0  0  0  0  0  0  0  0  0
    7.5955   11.8324   25.0833 C   0  0  0  0  0  0  0  0  0  0  0  0
    6.5410   11.7009   25.7120 O   0  0  0  0  0  0  0  0  0  0  0  0
    8.1749   13.1972   24.7978 C   0  0  0  0  0  0  0  0  0  0  0  0
  1  2  1  0
  2  3  1  0
  2  4  1  0
  5  4  1  1
  5  6  1  0
  6  7  1  0
  7  8  1  0
  8  9  1  0
  9 10  2  0
  9 11  1  0
 11  5  1  0
M  END
>  <inchikey>  (639) 
UHISTFBIGPGRMK-UHFFFAOYSA-N

>  <energy_score>  (639) 
-16.854842

>  <subsites>  (639) 
1 - Active Site

>  <alias>  (639) 
C90691-P22

>  <tags>  (639) 
openbind_a71ev2a_c1_scaffolds,BulkDock Fragalysis export,openbind_a71ev2a_c1_knitwork_impure,fragmenstein_placed

>  <distance_score>  (639) 
0.980663

>  <placement_batch>  (639) 
openbind_a71ev2a_c1_knitwork_impure

>  <name>  (639) 
C90691-P22

>  <ref_mols>  (639) 
A4311a,A0528a

>  <smiles>  (639) 
CC(C)C[C@H]1CCCC(=O)C1

>  <HIPPO Compound ID>  (639) 
18114

>  <HIPPO Pose ID>  (639) 
463905

>  <ref_pdb>  (639) 
A0875a

$$$$
C9352-P201
     RDKit          3D

 13 13  0  0  0  0  0  0  0  0999 V2000
   10.4832   15.5697   20.4274 C   0  0  0  0  0  0  0  0  0  0  0  0
    9.6118   14.8854   21.3772 C   0  0  0  0  0  0  0  0  0  0  0  0
    8.8755   14.2949   22.1175 C   0  0  0  0  0  0  0  0  0  0  0  0
    7.9040   13.5443   22.8781 C   0  0  0  0  0  0  0  0  0  0  0  0
    6.9231   13.1365   22.2651 O   0  0  0  0  0  0  0  0  0  0  0  0
    8.1569   13.3460   24.3957 C   0  0  2  0  0  0  0  0  0  0  0  0
    7.8879   14.6812   25.0922 C   0  0  0  0  0  0  0  0  0  0  0  0
    9.5071   12.9637   24.6730 O   0  0  0  0  0  0  0  0  0  0  0  0
    7.1606   12.2548   24.8898 C   0  0  1  0  0  0  0  0  0  0  0  0
    7.6391   10.8343   24.6258 C   0  0  0  0  0  0  0  0  0  0  0  0
    6.7336    9.9755   25.4793 C   0  0  0  0  0  0  0  0  0  0  0  0
    6.0614   10.9268   26.4474 C   0  0  0  0  0  0  0  0  0  0  0  0
    6.8151   12.1755   26.3331 N   0  0  0  0  0  0  0  0  0  0  0  0
  1  2  1  0
  2  3  3  0
  3  4  1  0
  4  5  2  0
  4  6  1  0
  6  7  1  1
  6  8  1  0
  6  9  1  0
  9 10  1  1
 10 11  1  0
 11 12  1  0
 12 13  1  0
 13  9  1  0
M  END
>  <inchikey>  (640) 
LDOKSSWQCPKARK-UHFFFAOYSA-N

>  <energy_score>  (640) 
-23.45748

>  <subsites>  (640) 
1 - Active Site

>  <alias>  (640) 
C9352-P201

>  <tags>  (640) 
openbind_a71ev2a_c1_scaffolds,BulkDock Fragalysis export,openbind_a71ev2a_c1_knitwork_impure,fragmenstein_placed

>  <distance_score>  (640) 
0.866385

>  <placement_batch>  (640) 
openbind_a71ev2a_c1_knitwork_impure

>  <name>  (640) 
C9352-P201

>  <ref_mols>  (640) 
A3634a,A0719a

>  <smiles>  (640) 
CC#CC(=O)[C@](C)(O)[C@H]1CCCN1

>  <HIPPO Compound ID>  (640) 
22220

>  <HIPPO Pose ID>  (640) 
463917

>  <ref_pdb>  (640) 
A0875a

$$$$
C9353-P201
     RDKit          3D

 16 16  0  0  0  0  0  0  0  0999 V2000
    7.1541   13.1932   22.1887 O   0  0  0  0  0  0  0  0  0  0  0  0
    7.6953   14.1393   23.1395 S   0  0  0  0  0  0  0  0  0  0  0  0
    6.9709   15.3272   23.5249 O   0  0  0  0  0  0  0  0  0  0  0  0
    8.1750   13.2918   24.6429 C   0  0  0  0  0  0  0  0  0  0  0  0
    7.1046   12.2709   24.9941 C   0  0  1  0  0  0  0  0  0  0  0  0
    7.5651   10.8599   24.6683 C   0  0  0  0  0  0  0  0  0  0  0  0
    6.6818    9.9736   25.5153 C   0  0  0  0  0  0  0  0  0  0  0  0
    6.0109   10.8997   26.5086 C   0  0  0  0  0  0  0  0  0  0  0  0
    6.7760   12.1455   26.4286 N   0  0  0  0  0  0  0  0  0  0  0  0
    9.1934   14.6568   22.5622 N   0  0  0  0  0  0  0  0  0  0  0  0
    9.2390   14.9858   21.1090 C   0  0  0  0  0  0  0  0  0  0  0  0
   10.6919   15.1180   20.7107 C   0  0  0  0  0  0  0  0  0  0  0  0
   10.8711   15.2987   19.2268 C   0  0  0  0  0  0  0  0  0  0  0  0
   10.4512   14.2608   18.5001 F   0  0  0  0  0  0  0  0  0  0  0  0
   10.2499   16.4113   18.7846 F   0  0  0  0  0  0  0  0  0  0  0  0
   12.1826   15.3930   18.9614 F   0  0  0  0  0  0  0  0  0  0  0  0
  1  2  2  0
  2  3  2  0
  2  4  1  0
  5  4  1  1
  5  6  1  0
  6  7  1  0
  7  8  1  0
  8  9  1  0
  2 10  1  0
 10 11  1  0
 11 12  1  0
 12 13  1  0
 13 14  1  0
 13 15  1  0
 13 16  1  0
  9  5  1  0
M  END
>  <inchikey>  (641) 
ZKAJGRJFQFGLLL-UHFFFAOYSA-N

>  <energy_score>  (641) 
-74.110975

>  <subsites>  (641) 
1 - Active Site

>  <alias>  (641) 
C9353-P201

>  <tags>  (641) 
openbind_a71ev2a_c1_scaffolds,BulkDock Fragalysis export,openbind_a71ev2a_c1_knitwork_impure,fragmenstein_placed

>  <distance_score>  (641) 
0.832181

>  <placement_batch>  (641) 
openbind_a71ev2a_c1_knitwork_impure

>  <name>  (641) 
C9353-P201

>  <ref_mols>  (641) 
A3634a,A0719a

>  <smiles>  (641) 
O=S(=O)(C[C@H]1CCCN1)NCCC(F)(F)F

>  <HIPPO Compound ID>  (641) 
13262

>  <HIPPO Pose ID>  (641) 
463918

>  <ref_pdb>  (641) 
A0875a

$$$$
C9359-P201
     RDKit          3D

 15 15  0  0  0  0  0  0  0  0999 V2000
   10.6743   15.5311   19.2392 C   0  0  0  0  0  0  0  0  0  0  0  0
   10.6942   15.3427   20.7472 C   0  0  0  0  0  0  0  0  0  0  0  0
    9.3166   14.9604   21.2614 C   0  0  0  0  0  0  0  0  0  0  0  0
    9.3881   14.5213   22.6817 N   0  0  0  0  0  0  0  0  0  0  0  0
    8.3974   13.2251   23.0284 S   0  0  0  0  0  0  0  0  0  0  0  0
    7.2135   13.2979   22.2004 O   0  0  0  0  0  0  0  0  0  0  0  0
    9.2444   12.0582   23.0076 O   0  0  0  0  0  0  0  0  0  0  0  0
    7.9376   13.4870   24.6413 N   0  0  0  0  0  0  0  0  0  0  0  0
    7.6181   14.8924   25.0049 C   0  0  0  0  0  0  0  0  0  0  0  0
    6.4871   15.5157   24.2084 C   0  0  0  0  0  0  0  0  0  0  0  0
    6.8401   12.5143   25.0000 C   0  0  1  0  0  0  0  0  0  0  0  0
    7.3393   11.0807   25.0218 C   0  0  0  0  0  0  0  0  0  0  0  0
    6.3846   10.3505   25.9361 C   0  0  0  0  0  0  0  0  0  0  0  0
    5.5939   11.3476   26.6519 N   0  0  0  0  0  0  0  0  0  0  0  0
    6.1968   12.6552   26.3740 C   0  0  0  0  0  0  0  0  0  0  0  0
  1  2  1  0
  2  3  1  0
  3  4  1  0
  4  5  1  0
  5  6  2  0
  5  7  2  0
  5  8  1  0
  8  9  1  0
  9 10  1  0
 11  8  1  1
 11 12  1  0
 12 13  1  0
 13 14  1  0
 14 15  1  0
 15 11  1  0
M  END
>  <inchikey>  (642) 
BNWUDFFUSWDMML-UHFFFAOYSA-N

>  <energy_score>  (642) 
-53.520901

>  <subsites>  (642) 
1 - Active Site

>  <alias>  (642) 
C9359-P201

>  <tags>  (642) 
openbind_a71ev2a_c1_scaffolds,BulkDock Fragalysis export,openbind_a71ev2a_c1_knitwork_impure,fragmenstein_placed

>  <distance_score>  (642) 
0.88999

>  <placement_batch>  (642) 
openbind_a71ev2a_c1_knitwork_impure

>  <name>  (642) 
C9359-P201

>  <ref_mols>  (642) 
A3634a,A0719a

>  <smiles>  (642) 
CCCNS(=O)(=O)N(CC)[C@H]1CCNC1

>  <HIPPO Compound ID>  (642) 
8064

>  <HIPPO Pose ID>  (642) 
463921

>  <ref_pdb>  (642) 
A0875a

$$$$
C9365-P201
     RDKit          3D

 15 15  0  0  0  0  0  0  0  0999 V2000
   10.4782   15.5634   18.9860 C   0  0  0  0  0  0  0  0  0  0  0  0
    9.7992   15.4579   19.9706 C   0  0  0  0  0  0  0  0  0  0  0  0
    8.9545   15.3066   21.1621 C   0  0  0  0  0  0  0  0  0  0  0  0
    9.4864   14.2589   22.1530 C   0  0  1  0  0  0  0  0  0  0  0  0
   10.7127   14.7206   22.9571 C   0  0  0  0  0  0  0  0  0  0  0  0
   11.8869   15.1944   22.1188 C   0  0  0  0  0  0  0  0  0  0  0  0
    8.3211   13.8501   23.0396 N   0  0  0  0  0  0  0  0  0  0  0  0
    8.7084   12.8955   24.3506 S   0  0  0  0  0  0  0  0  0  0  0  0
    9.5515   11.8382   23.8564 O   0  0  0  0  0  0  0  0  0  0  0  0
    9.0858   13.7521   25.4461 O   0  0  0  0  0  0  0  0  0  0  0  0
    7.2102   12.2368   24.6840 N   0  0  0  0  0  0  0  0  0  0  0  0
    6.2403   13.0802   25.4252 C   0  0  0  0  0  0  0  0  0  0  0  0
    5.8835   12.2848   26.6726 C   0  0  0  0  0  0  0  0  0  0  0  0
    6.0721   10.8452   26.2548 C   0  0  0  0  0  0  0  0  0  0  0  0
    7.2485   10.8878   25.3047 C   0  0  0  0  0  0  0  0  0  0  0  0
  1  2  3  0
  2  3  1  0
  4  3  1  6
  4  5  1  0
  5  6  1  0
  4  7  1  0
  7  8  1  0
  8  9  2  0
  8 10  2  0
  8 11  1  0
 11 12  1  0
 12 13  1  0
 13 14  1  0
 14 15  1  0
 15 11  1  0
M  END
>  <inchikey>  (643) 
PYBOZBRLIMDYOY-UHFFFAOYSA-N

>  <energy_score>  (643) 
-39.968935

>  <subsites>  (643) 
1 - Active Site

>  <alias>  (643) 
C9365-P201

>  <tags>  (643) 
openbind_a71ev2a_c1_scaffolds,BulkDock Fragalysis export,openbind_a71ev2a_c1_knitwork_impure,fragmenstein_placed

>  <distance_score>  (643) 
0.883779

>  <placement_batch>  (643) 
openbind_a71ev2a_c1_knitwork_impure

>  <name>  (643) 
C9365-P201

>  <ref_mols>  (643) 
A3634a,A0719a

>  <smiles>  (643) 
C#CC[C@@H](CC)NS(=O)(=O)N1CCCC1

>  <HIPPO Compound ID>  (643) 
4774

>  <HIPPO Pose ID>  (643) 
463924

>  <ref_pdb>  (643) 
A0875a

$$$$
C9371-P201
     RDKit          3D

 14 14  0  0  0  0  0  0  0  0999 V2000
   10.5159   15.5578   19.0284 C   0  0  0  0  0  0  0  0  0  0  0  0
   10.3826   15.5759   20.3599 C   0  0  0  0  0  0  0  0  0  0  0  0
    9.1215   15.2002   21.0776 C   0  0  0  0  0  0  0  0  0  0  0  0
    9.4307   14.2811   22.2504 C   0  0  0  0  0  0  0  0  0  0  0  0
    8.1697   13.6663   22.8306 C   0  0  0  0  0  0  0  0  0  0  0  0
    7.2103   13.3816   22.1072 O   0  0  0  0  0  0  0  0  0  0  0  0
    8.1733   13.3672   24.3555 C   0  0  2  0  0  0  0  0  0  0  0  0
    7.8609   14.6868   25.0621 C   0  0  0  0  0  0  0  0  0  0  0  0
    9.4856   12.9690   24.7571 O   0  0  0  0  0  0  0  0  0  0  0  0
    7.1397   12.2668   24.6896 C   0  0  1  0  0  0  0  0  0  0  0  0
    7.6636   10.8406   24.6846 C   0  0  0  0  0  0  0  0  0  0  0  0
    6.6645   10.0601   25.5085 C   0  0  0  0  0  0  0  0  0  0  0  0
    5.8333   11.0176   26.2248 N   0  0  0  0  0  0  0  0  0  0  0  0
    6.3947   12.3505   26.0166 C   0  0  0  0  0  0  0  0  0  0  0  0
  1  2  2  0
  2  3  1  0
  3  4  1  0
  4  5  1  0
  5  6  2  0
  5  7  1  0
  7  8  1  1
  7  9  1  0
  7 10  1  0
 10 11  1  1
 11 12  1  0
 12 13  1  0
 13 14  1  0
 14 10  1  0
M  END
>  <inchikey>  (644) 
TXUZFYUKGKNOMI-UHFFFAOYSA-N

>  <energy_score>  (644) 
-9.982802

>  <subsites>  (644) 
1 - Active Site

>  <alias>  (644) 
C9371-P201

>  <tags>  (644) 
openbind_a71ev2a_c1_scaffolds,BulkDock Fragalysis export,openbind_a71ev2a_c1_knitwork_impure,fragmenstein_placed

>  <distance_score>  (644) 
0.913074

>  <placement_batch>  (644) 
openbind_a71ev2a_c1_knitwork_impure

>  <name>  (644) 
C9371-P201

>  <ref_mols>  (644) 
A3634a,A0719a

>  <smiles>  (644) 
C=CCCC(=O)[C@](C)(O)[C@H]1CCNC1

>  <HIPPO Compound ID>  (644) 
5356

>  <HIPPO Pose ID>  (644) 
463928

>  <ref_pdb>  (644) 
A0875a

$$$$
C9372-P201
     RDKit          3D

 16 16  0  0  0  0  0  0  0  0999 V2000
   10.1164   13.3108   24.8371 O   0  0  0  0  0  0  0  0  0  0  0  0
    8.6982   13.5594   24.6800 S   0  0  0  0  0  0  0  0  0  0  0  0
    8.0735   14.6828   25.3405 O   0  0  0  0  0  0  0  0  0  0  0  0
    8.4064   13.7730   23.0322 N   0  0  0  0  0  0  0  0  0  0  0  0
    9.6221   14.3470   22.3756 C   0  0  0  0  0  0  0  0  0  0  0  0
    9.3461   14.8392   20.9713 C   0  0  0  0  0  0  0  0  0  0  0  0
   10.6610   15.3182   20.3465 C   0  0  0  0  0  0  0  0  0  0  0  0
   10.6368   15.3942   18.8370 C   0  0  0  0  0  0  0  0  0  0  0  0
   10.5107   14.1773   18.2873 F   0  0  0  0  0  0  0  0  0  0  0  0
    9.6489   16.1989   18.4024 F   0  0  0  0  0  0  0  0  0  0  0  0
   11.7894   15.8706   18.3544 F   0  0  0  0  0  0  0  0  0  0  0  0
    7.9075   12.0928   25.1897 C   0  0  2  0  0  0  0  0  0  0  0  0
    7.8360   10.9291   24.2644 C   0  0  0  0  0  0  0  0  0  0  0  0
    6.9914    9.9920   25.1065 C   0  0  0  0  0  0  0  0  0  0  0  0
    6.0579   10.8293   25.8749 N   0  0  0  0  0  0  0  0  0  0  0  0
    6.5191   12.2234   25.7512 C   0  0  0  0  0  0  0  0  0  0  0  0
  1  2  2  0
  2  3  2  0
  2  4  1  0
  4  5  1  0
  5  6  1  0
  6  7  1  0
  7  8  1  0
  8  9  1  0
  8 10  1  0
  8 11  1  0
 12  2  1  6
 12 13  1  0
 13 14  1  0
 14 15  1  0
 15 16  1  0
 16 12  1  0
M  END
>  <inchikey>  (645) 
QUEIHHGXYURJMF-UHFFFAOYSA-N

>  <energy_score>  (645) 
-43.965864

>  <subsites>  (645) 
1 - Active Site

>  <alias>  (645) 
C9372-P201

>  <tags>  (645) 
openbind_a71ev2a_c1_scaffolds,BulkDock Fragalysis export,openbind_a71ev2a_c1_knitwork_impure,fragmenstein_placed

>  <distance_score>  (645) 
0.841975

>  <placement_batch>  (645) 
openbind_a71ev2a_c1_knitwork_impure

>  <name>  (645) 
C9372-P201

>  <ref_mols>  (645) 
A3634a,A0719a

>  <smiles>  (645) 
O=S(=O)(NCCCC(F)(F)F)[C@@H]1CCNC1

>  <HIPPO Compound ID>  (645) 
31916

>  <HIPPO Pose ID>  (645) 
463929

>  <ref_pdb>  (645) 
A0875a

$$$$
C9375-P201
     RDKit          3D

 14 14  0  0  0  0  0  0  0  0999 V2000
   11.5377   15.4908   21.8426 C   0  0  0  0  0  0  0  0  0  0  0  0
   10.4449   15.7090   20.7963 C   0  0  1  0  0  0  0  0  0  0  0  0
   10.8753   15.1466   19.5090 C   0  0  0  0  0  0  0  0  0  0  0  0
   11.2677   14.6925   18.5174 N   0  0  0  0  0  0  0  0  0  0  0  0
    9.0773   15.1700   21.2168 C   0  0  0  0  0  0  0  0  0  0  0  0
    9.1229   13.8331   21.8405 N   0  0  0  0  0  0  0  0  0  0  0  0
    8.3177   13.6752   23.2808 S   0  0  0  0  0  0  0  0  0  0  0  0
    9.1778   14.1426   24.3385 O   0  0  0  0  0  0  0  0  0  0  0  0
    6.9749   14.1589   23.0885 O   0  0  0  0  0  0  0  0  0  0  0  0
    8.2168   12.0182   23.4043 N   0  0  0  0  0  0  0  0  0  0  0  0
    9.4470   11.2189   23.3485 C   0  0  0  0  0  0  0  0  0  0  0  0
    8.9889    9.8417   23.7905 C   0  0  0  0  0  0  0  0  0  0  0  0
    7.7929   10.0835   24.6993 C   0  0  0  0  0  0  0  0  0  0  0  0
    7.5077   11.5706   24.6250 C   0  0  0  0  0  0  0  0  0  0  0  0
  2  1  1  1
  2  3  1  0
  3  4  3  0
  2  5  1  0
  5  6  1  0
  6  7  1  0
  7  8  2  0
  7  9  2  0
  7 10  1  0
 10 11  1  0
 11 12  1  0
 12 13  1  0
 13 14  1  0
 14 10  1  0
M  END
>  <inchikey>  (646) 
HPDGQSVLUHUNOU-UHFFFAOYSA-N

>  <energy_score>  (646) 
-46.144282

>  <subsites>  (646) 
1 - Active Site

>  <alias>  (646) 
C9375-P201

>  <tags>  (646) 
openbind_a71ev2a_c1_scaffolds,BulkDock Fragalysis export,openbind_a71ev2a_c1_knitwork_impure,fragmenstein_placed

>  <distance_score>  (646) 
0.915604

>  <placement_batch>  (646) 
openbind_a71ev2a_c1_knitwork_impure

>  <name>  (646) 
C9375-P201

>  <ref_mols>  (646) 
A3634a,A0719a

>  <smiles>  (646) 
C[C@@H](C#N)CNS(=O)(=O)N1CCCC1

>  <HIPPO Compound ID>  (646) 
2616

>  <HIPPO Pose ID>  (646) 
463932

>  <ref_pdb>  (646) 
A0875a

$$$$
C9379-P201
     RDKit          3D

 14 14  0  0  0  0  0  0  0  0999 V2000
   11.3706   15.1524   18.5081 C   0  0  0  0  0  0  0  0  0  0  0  0
   10.2403   15.7161   19.3366 C   0  0  0  0  0  0  0  0  0  0  0  0
   10.2916   15.1650   20.7537 C   0  0  0  0  0  0  0  0  0  0  0  0
    8.9009   15.0313   21.3487 C   0  0  0  0  0  0  0  0  0  0  0  0
    8.9633   14.3047   22.6908 C   0  0  0  0  0  0  0  0  0  0  0  0
    7.5700   14.1478   23.2883 C   0  0  1  0  0  0  0  0  0  0  0  0
    6.7781   13.3536   22.4008 O   0  0  0  0  0  0  0  0  0  0  0  0
    7.6640   13.6060   24.7321 C   0  0  0  0  0  0  0  0  0  0  0  0
    8.4043   14.1156   25.5772 O   0  0  0  0  0  0  0  0  0  0  0  0
    6.7784   12.4202   25.0495 C   0  0  1  0  0  0  0  0  0  0  0  0
    7.5050   11.1197   24.8227 C   0  0  0  0  0  0  0  0  0  0  0  0
    6.7018   10.1337   25.6304 C   0  0  0  0  0  0  0  0  0  0  0  0
    5.9550   10.9617   26.6630 C   0  0  0  0  0  0  0  0  0  0  0  0
    6.3087   12.3640   26.4497 N   0  0  0  0  0  0  0  0  0  0  0  0
  1  2  1  0
  2  3  1  0
  3  4  1  0
  4  5  1  0
  5  6  1  0
  6  7  1  6
  6  8  1  0
  8  9  2  0
 10  8  1  1
 10 11  1  0
 11 12  1  0
 12 13  1  0
 13 14  1  0
 14 10  1  0
M  END
>  <inchikey>  (647) 
DSHXVVHRVRWWBZ-UHFFFAOYSA-N

>  <energy_score>  (647) 
-9.390796

>  <subsites>  (647) 
1 - Active Site

>  <alias>  (647) 
C9379-P201

>  <tags>  (647) 
openbind_a71ev2a_c1_scaffolds,BulkDock Fragalysis export,openbind_a71ev2a_c1_knitwork_impure,fragmenstein_placed

>  <distance_score>  (647) 
0.981034

>  <placement_batch>  (647) 
openbind_a71ev2a_c1_knitwork_impure

>  <name>  (647) 
C9379-P201

>  <ref_mols>  (647) 
A3634a,A0719a

>  <smiles>  (647) 
CCCCC[C@@H](O)C(=O)[C@H]1CCCN1

>  <HIPPO Compound ID>  (647) 
13635

>  <HIPPO Pose ID>  (647) 
463936

>  <ref_pdb>  (647) 
A0875a

$$$$
C9386-P201
     RDKit          3D

 14 14  0  0  0  0  0  0  0  0999 V2000
   10.0925   15.0262   20.0335 C   0  0  0  0  0  0  0  0  0  0  0  0
    9.0537   14.6632   20.8093 C   0  0  0  0  0  0  0  0  0  0  0  0
    8.9517   14.7822   22.3082 C   0  0  0  0  0  0  0  0  0  0  0  0
   10.3174   15.2223   22.8636 C   0  0  0  0  0  0  0  0  0  0  0  0
    7.7969   15.7778   22.5137 C   0  0  0  0  0  0  0  0  0  0  0  0
    8.4689   13.4775   22.9056 N   0  0  0  0  0  0  0  0  0  0  0  0
    8.9111   13.2555   24.5146 S   0  0  0  0  0  0  0  0  0  0  0  0
   10.2996   12.8555   24.5285 O   0  0  0  0  0  0  0  0  0  0  0  0
    8.4697   14.4156   25.2613 O   0  0  0  0  0  0  0  0  0  0  0  0
    8.0081   11.9129   25.1378 C   0  0  2  0  0  0  0  0  0  0  0  0
    7.8928   10.6605   24.3436 C   0  0  0  0  0  0  0  0  0  0  0  0
    6.8833    9.9135   25.1901 C   0  0  0  0  0  0  0  0  0  0  0  0
    6.0515   10.9051   25.8911 N   0  0  0  0  0  0  0  0  0  0  0  0
    6.6111   12.2300   25.5823 C   0  0  0  0  0  0  0  0  0  0  0  0
  1  2  2  0
  2  3  1  0
  3  4  1  0
  3  5  1  0
  3  6  1  0
  6  7  1  0
  7  8  2  0
  7  9  2  0
 10  7  1  6
 10 11  1  0
 11 12  1  0
 12 13  1  0
 13 14  1  0
 14 10  1  0
M  END
>  <inchikey>  (648) 
IXOANNXJRWRLSD-UHFFFAOYSA-N

>  <energy_score>  (648) 
-28.910814

>  <subsites>  (648) 
1 - Active Site

>  <alias>  (648) 
C9386-P201

>  <tags>  (648) 
openbind_a71ev2a_c1_scaffolds,BulkDock Fragalysis export,openbind_a71ev2a_c1_knitwork_impure,fragmenstein_placed

>  <distance_score>  (648) 
0.969757

>  <placement_batch>  (648) 
openbind_a71ev2a_c1_knitwork_impure

>  <name>  (648) 
C9386-P201

>  <ref_mols>  (648) 
A3634a,A0719a

>  <smiles>  (648) 
C=CC(C)(C)NS(=O)(=O)[C@@H]1CCNC1

>  <HIPPO Compound ID>  (648) 
22036

>  <HIPPO Pose ID>  (648) 
463942

>  <ref_pdb>  (648) 
A0875a

$$$$
C1329-P252
     RDKit          3D

 11 11  0  0  0  0  0  0  0  0999 V2000
    6.3846   13.3632   25.6443 C   0  0  0  0  0  0  0  0  0  0  0  0
    7.5264   13.3287   24.6255 C   0  0  2  0  0  0  0  0  0  0  0  0
    7.0432   13.9015   23.2522 C   0  0  0  0  0  0  0  0  0  0  0  0
    6.9786   13.2626   22.2766 O   0  0  0  0  0  0  0  0  0  0  0  0
    6.6806   15.3828   23.5055 N   0  0  0  0  0  0  0  0  0  0  0  0
    6.2709   16.3687   22.6288 O   0  0  0  0  0  0  0  0  0  0  0  0
    8.1294   11.9501   24.4512 C   0  0  0  0  0  0  0  0  0  0  0  0
    7.6096   10.7522   24.7573 C   0  0  0  0  0  0  0  0  0  0  0  0
    8.4617    9.6247   24.2935 C   0  0  0  0  0  0  0  0  0  0  0  0
    9.7113   10.2982   23.7631 C   0  0  0  0  0  0  0  0  0  0  0  0
    9.4831   11.8065   23.8245 C   0  0  0  0  0  0  0  0  0  0  0  0
  2  1  1  1
  2  3  1  0
  3  4  2  0
  3  5  1  0
  5  6  1  0
  2  7  1  0
  7  8  2  0
  8  9  1  0
  9 10  1  0
 10 11  1  0
 11  7  1  0
M  END
>  <inchikey>  (649) 
RBPJKPBEDYIOQL-UHFFFAOYSA-N

>  <energy_score>  (649) 
-6.924584

>  <subsites>  (649) 
1 - Active Site

>  <alias>  (649) 
C1329-P252

>  <tags>  (649) 
openbind_a71ev2a_c1_scaffolds,BulkDock Fragalysis export,openbind_a71ev2a_c1_knitwork_impure,fragmenstein_placed

>  <distance_score>  (649) 
0.994908

>  <placement_batch>  (649) 
openbind_a71ev2a_c1_knitwork_impure

>  <name>  (649) 
C1329-P252

>  <ref_mols>  (649) 
A1080a,A3975a

>  <smiles>  (649) 
C[C@H](C(=O)NO)C1=CCCC1

>  <HIPPO Compound ID>  (649) 
31930

>  <HIPPO Pose ID>  (649) 
464018

>  <ref_pdb>  (649) 
A2629a

$$$$
C18177-P122
     RDKit          3D

 11 11  0  0  0  0  0  0  0  0999 V2000
   13.5280   11.2709   20.9434 C   0  0  0  0  0  0  0  0  0  0  0  0
   12.7025   11.7839   22.1266 C   0  0  0  0  0  0  0  0  0  0  0  0
   11.6828   12.9009   21.9719 C   0  0  0  0  0  0  0  0  0  0  0  0
   10.6461   13.0498   22.7539 N   0  0  0  0  0  0  0  0  0  0  0  0
   10.6968   12.1404   23.8251 O   0  0  0  0  0  0  0  0  0  0  0  0
    9.6114   11.2379   23.7574 C   0  0  0  0  0  0  0  0  0  0  0  0
   11.9996   14.0070   21.1175 C   0  0  0  0  0  0  0  0  0  0  0  0
   12.4816   15.2295   21.5830 C   0  0  0  0  0  0  0  0  0  0  0  0
   12.9244   15.9948   20.5965 N   0  0  0  0  0  0  0  0  0  0  0  0
   12.5649   15.3655   19.4871 N   0  0  0  0  0  0  0  0  0  0  0  0
   12.0387   14.1374   19.7470 C   0  0  0  0  0  0  0  0  0  0  0  0
  1  2  1  0
  2  3  1  0
  3  4  2  3
  4  5  1  0
  5  6  1  0
  3  7  1  0
  7  8  1  0
  8  9  2  0
  9 10  1  0
 10 11  1  0
 11  7  2  0
M  END
>  <inchikey>  (650) 
OKSDMMSSFWTMDL-UHFFFAOYSA-N

>  <energy_score>  (650) 
-5.387979

>  <subsites>  (650) 
1 - Active Site

>  <alias>  (650) 
C18177-P122

>  <tags>  (650) 
openbind_a71ev2a_c1_scaffolds,BulkDock Fragalysis export,openbind_a71ev2a_c1_knitwork_impure,fragmenstein_placed

>  <distance_score>  (650) 
0.8503

>  <placement_batch>  (650) 
openbind_a71ev2a_c1_knitwork_impure

>  <name>  (650) 
C18177-P122

>  <ref_mols>  (650) 
A2304a,A1775a

>  <smiles>  (650) 
CCC(=NOC)c1cn[nH]c1

>  <HIPPO Compound ID>  (650) 
2536

>  <HIPPO Pose ID>  (650) 
464822

>  <ref_pdb>  (650) 
A2629a

$$$$
C3689-P235
     RDKit          3D

 11 12  0  0  0  0  0  0  0  0999 V2000
    8.0629   11.8649   24.9753 C   0  0  0  0  0  0  0  0  0  0  0  0
    7.8654   10.4961   24.8803 C   0  0  0  0  0  0  0  0  0  0  0  0
    6.8885    9.8917   25.6717 C   0  0  0  0  0  0  0  0  0  0  0  0
    6.1697   10.6639   26.5729 C   0  0  0  0  0  0  0  0  0  0  0  0
    5.1022   10.1668   27.4381 C   0  0  0  0  0  0  0  0  0  0  0  0
    4.2485   10.8709   28.2701 C   0  0  0  0  0  0  0  0  0  0  0  0
    3.3317    9.9356   28.7677 C   0  0  0  0  0  0  0  0  0  0  0  0
    3.5765    8.7081   28.3202 N   0  0  0  0  0  0  0  0  0  0  0  0
    4.6861    8.8633   27.5686 N   0  0  0  0  0  0  0  0  0  0  0  0
    6.3854   11.9917   26.7064 N   0  0  0  0  0  0  0  0  0  0  0  0
    7.2914   12.5658   25.8840 C   0  0  0  0  0  0  0  0  0  0  0  0
  1  2  2  0
  2  3  1  0
  3  4  2  0
  4  5  1  0
  5  6  2  0
  6  7  1  0
  7  8  2  0
  8  9  1  0
  4 10  1  0
 10 11  2  0
 11  1  1  0
  9  5  1  0
M  END
>  <inchikey>  (651) 
MWSDBUDWLOMHAE-UHFFFAOYSA-N

>  <energy_score>  (651) 
-6.082349

>  <subsites>  (651) 
1 - Active Site

>  <alias>  (651) 
C3689-P235

>  <tags>  (651) 
openbind_a71ev2a_c1_scaffolds,BulkDock Fragalysis export,openbind_a71ev2a_c1_knitwork_impure,fragmenstein_placed

>  <distance_score>  (651) 
0.893332

>  <placement_batch>  (651) 
openbind_a71ev2a_c1_knitwork_impure

>  <name>  (651) 
C3689-P235

>  <ref_mols>  (651) 
A3897a,A0556a

>  <smiles>  (651) 
c1ccc(-c2ccn[nH]2)nc1

>  <HIPPO Compound ID>  (651) 
5401

>  <HIPPO Pose ID>  (651) 
464867

>  <ref_pdb>  (651) 
A2629a

$$$$
C3732-P235
     RDKit          3D

 11 12  0  0  0  0  0  0  0  0999 V2000
    8.0320   11.8788   24.9912 C   0  0  0  0  0  0  0  0  0  0  0  0
    7.8190   10.5131   24.8845 C   0  0  0  0  0  0  0  0  0  0  0  0
    6.8449    9.9127   25.6814 C   0  0  0  0  0  0  0  0  0  0  0  0
    6.1493   10.6825   26.6044 C   0  0  0  0  0  0  0  0  0  0  0  0
    5.1150   10.1286   27.4653 C   0  0  0  0  0  0  0  0  0  0  0  0
    4.3009    8.9747   27.3724 C   0  0  0  0  0  0  0  0  0  0  0  0
    3.3543    8.9132   28.3151 N   0  0  0  0  0  0  0  0  0  0  0  0
    3.5913   10.0042   29.0520 N   0  0  0  0  0  0  0  0  0  0  0  0
    4.6210   10.7632   28.5860 C   0  0  0  0  0  0  0  0  0  0  0  0
    6.3857   12.0075   26.7544 N   0  0  0  0  0  0  0  0  0  0  0  0
    7.2828   12.5789   25.9201 C   0  0  0  0  0  0  0  0  0  0  0  0
  1  2  2  0
  2  3  1  0
  3  4  2  0
  4  5  1  0
  5  6  1  0
  6  7  2  0
  7  8  1  0
  8  9  1  0
  4 10  1  0
 10 11  2  0
 11  1  1  0
  9  5  2  0
M  END
>  <inchikey>  (652) 
ZXOXPYYAVFDCDK-UHFFFAOYSA-N

>  <energy_score>  (652) 
-11.905572

>  <subsites>  (652) 
1 - Active Site

>  <alias>  (652) 
C3732-P235

>  <tags>  (652) 
openbind_a71ev2a_c1_scaffolds,BulkDock Fragalysis export,openbind_a71ev2a_c1_knitwork_impure,fragmenstein_placed

>  <distance_score>  (652) 
0.966026

>  <placement_batch>  (652) 
openbind_a71ev2a_c1_knitwork_impure

>  <name>  (652) 
C3732-P235

>  <ref_mols>  (652) 
A3897a,A0556a

>  <smiles>  (652) 
c1ccc(-c2cn[nH]c2)nc1

>  <HIPPO Compound ID>  (652) 
3732

>  <HIPPO Pose ID>  (652) 
464882

>  <ref_pdb>  (652) 
A2629a

$$$$
C12360-P176
     RDKit          3D

 22 24  0  0  0  0  0  0  0  0999 V2000
   31.1031   23.3480   19.0459 O   0  0  0  0  0  0  0  0  0  0  0  0
   30.5535   22.3271   19.9139 S   0  0  0  0  0  0  0  0  0  0  0  0
   30.5135   20.9429   19.5107 O   0  0  0  0  0  0  0  0  0  0  0  0
   28.9104   22.8561   20.4155 C   0  0  0  0  0  0  0  0  0  0  0  0
   27.8088   22.1259   19.6481 C   0  0  0  0  0  0  0  0  0  0  0  0
   27.3911   20.7997   20.2929 C   0  0  0  0  0  0  0  0  0  0  0  0
   26.4307   20.9145   21.3771 N   0  0  0  0  0  0  0  0  0  0  0  0
   25.4704   19.9998   21.7118 C   0  0  0  0  0  0  0  0  0  0  0  0
   24.7739   20.5420   22.7651 C   0  0  0  0  0  0  0  0  0  0  0  0
   25.4068   21.7719   23.0137 C   0  0  0  0  0  0  0  0  0  0  0  0
   26.4325   21.9931   22.1889 N   0  0  0  0  0  0  0  0  0  0  0  0
   31.4608   22.4415   21.3208 N   0  0  0  0  0  0  0  0  0  0  0  0
   31.0447   22.1539   22.7176 C   0  0  1  0  0  0  0  0  0  0  0  0
   30.2767   20.8521   23.0422 C   0  0  0  0  0  0  0  0  0  0  0  0
   31.0258   20.8395   24.4086 C   0  0  1  0  0  0  0  0  0  0  0  0
   31.3238   19.4466   25.0889 C   0  0  0  0  0  0  0  0  0  0  0  0
   32.6149   18.9496   25.3263 C   0  0  0  0  0  0  0  0  0  0  0  0
   32.8154   17.7083   25.9288 C   0  0  0  0  0  0  0  0  0  0  0  0
   31.7056   16.9678   26.2869 C   0  0  0  0  0  0  0  0  0  0  0  0
   30.4398   17.3794   26.0816 N   0  0  0  0  0  0  0  0  0  0  0  0
   30.2891   18.6019   25.5125 C   0  0  0  0  0  0  0  0  0  0  0  0
   32.1470   21.6227   23.6679 C   0  0  0  0  0  0  0  0  0  0  0  0
  1  2  2  0
  2  3  2  0
  2  4  1  0
  4  5  1  0
  5  6  1  0
  6  7  1  0
  7  8  1  0
  8  9  2  0
  9 10  1  0
 10 11  2  0
  2 12  1  0
 13 12  1  6
 13 14  1  0
 14 15  1  0
 15 16  1  6
 16 17  2  0
 17 18  1  0
 18 19  2  0
 19 20  1  0
 20 21  2  0
 15 22  1  0
 11  7  1  0
 22 13  1  0
 21 16  1  0
M  END
>  <inchikey>  (653) 
UGODLXNSYTXUEC-UHFFFAOYSA-N

>  <energy_score>  (653) 
-49.317438

>  <subsites>  (653) 
1 - Active Site,5 - A3181/A/202/1

>  <alias>  (653) 
C12360-P176

>  <tags>  (653) 
openbind_a71ev2a_c1_scaffolds,BulkDock Fragalysis export,openbind_a71ev2a_c1_knitwork_impure,fragmenstein_placed

>  <distance_score>  (653) 
0.849408

>  <placement_batch>  (653) 
openbind_a71ev2a_c1_knitwork_impure

>  <name>  (653) 
C12360-P176

>  <ref_mols>  (653) 
A3392a,A0719b

>  <smiles>  (653) 
O=S(=O)(CCCn1cccn1)N[C@H]1C[C@@H](c2cccnc2)C1

>  <HIPPO Compound ID>  (653) 
94229

>  <HIPPO Pose ID>  (653) 
464966

>  <ref_pdb>  (653) 
A2629a

$$$$
C8903-P214
     RDKit          3D

 19 21  0  0  0  0  0  0  0  0999 V2000
    9.4900   13.5925   25.2917 O   0  0  0  0  0  0  0  0  0  0  0  0
    8.5796   13.3629   24.4995 C   0  0  0  0  0  0  0  0  0  0  0  0
    8.3825   14.0153   23.1350 C   0  0  0  0  0  0  0  0  0  0  0  0
    9.6557   14.5109   22.5861 N   0  0  0  0  0  0  0  0  0  0  0  0
    9.5179   14.9472   21.1936 C   0  0  0  0  0  0  0  0  0  0  0  0
   10.8753   15.3150   20.5740 C   0  0  0  0  0  0  0  0  0  0  0  0
   11.7791   16.0852   21.5326 C   0  0  0  0  0  0  0  0  0  0  0  0
   10.9495   16.6668   22.6573 C   0  0  0  0  0  0  0  0  0  0  0  0
   10.2394   15.5648   23.4324 C   0  0  0  0  0  0  0  0  0  0  0  0
    7.5498   12.4107   24.9334 C   0  0  0  0  0  0  0  0  0  0  0  0
    7.7045   11.0631   24.6358 C   0  0  0  0  0  0  0  0  0  0  0  0
    6.8011   10.1480   25.1734 C   0  0  0  0  0  0  0  0  0  0  0  0
    5.7624   10.5554   26.0212 C   0  0  0  0  0  0  0  0  0  0  0  0
    5.6018   11.9267   26.2848 C   0  0  0  0  0  0  0  0  0  0  0  0
    6.5087   12.8528   25.7499 C   0  0  0  0  0  0  0  0  0  0  0  0
    4.5245   12.4082   27.2239 C   0  0  0  0  0  0  0  0  0  0  0  0
    3.4355   11.3666   27.4529 C   0  0  0  0  0  0  0  0  0  0  0  0
    4.0511    9.9919   27.6535 C   0  0  0  0  0  0  0  0  0  0  0  0
    4.8448    9.6183   26.4940 N   0  0  0  0  0  0  0  0  0  0  0  0
  1  2  2  0
  2  3  1  0
  3  4  1  0
  4  5  1  0
  5  6  1  0
  6  7  1  0
  7  8  1  0
  8  9  1  0
  2 10  1  0
 10 11  2  0
 11 12  1  0
 12 13  2  0
 13 14  1  0
 14 15  2  0
 14 16  1  0
 16 17  1  0
 17 18  1  0
 18 19  1  0
  9  4  1  0
 15 10  1  0
 19 13  1  0
M  END
>  <inchikey>  (654) 
UKLVECSDHSHYKS-UHFFFAOYSA-N

>  <energy_score>  (654) 
-33.955668

>  <subsites>  (654) 
1 - Active Site

>  <alias>  (654) 
C8903-P214

>  <tags>  (654) 
openbind_a71ev2a_c1_scaffolds,BulkDock Fragalysis export,openbind_a71ev2a_c1_knitwork_impure,fragmenstein_placed

>  <distance_score>  (654) 
0.589965

>  <placement_batch>  (654) 
openbind_a71ev2a_c1_knitwork_impure

>  <name>  (654) 
C8903-P214

>  <ref_mols>  (654) 
A1778a,A3550a

>  <smiles>  (654) 
O=C(CN1CCCCC1)c1ccc2c(c1)CCCN2

>  <HIPPO Compound ID>  (654) 
8903

>  <HIPPO Pose ID>  (654) 
465230

>  <ref_pdb>  (654) 
A2629a

$$$$
C1390-P214
     RDKit          3D

 17 17  0  0  0  0  0  0  0  0999 V2000
   10.7139   16.0081   19.2125 C   0  0  0  0  0  0  0  0  0  0  0  0
   11.0783   15.4018   20.5525 C   0  0  0  0  0  0  0  0  0  0  0  0
    9.8392   15.1401   21.4180 C   0  0  0  0  0  0  0  0  0  0  0  0
   10.1787   14.3408   22.6858 C   0  0  2  0  0  0  0  0  0  0  0  0
    8.9655   13.6753   23.1924 N   0  0  0  0  0  0  0  0  0  0  0  0
    8.2775   13.7554   24.5826 C   0  0  0  0  0  0  0  0  0  0  0  0
    8.5233   14.4189   25.5104 O   0  0  0  0  0  0  0  0  0  0  0  0
    7.1423   12.7145   24.5708 C   0  0  0  0  0  0  0  0  0  0  0  0
    7.7358   11.3039   24.4465 C   0  0  0  0  0  0  0  0  0  0  0  0
    6.9634   10.2290   25.1972 C   0  0  0  0  0  0  0  0  0  0  0  0
    5.5444   10.4921   25.2548 N   0  0  0  0  0  0  0  0  0  0  0  0
    5.2001   11.7517   25.9027 C   0  0  0  0  0  0  0  0  0  0  0  0
    6.2874   12.8215   25.8367 C   0  0  0  0  0  0  0  0  0  0  0  0
   10.9395   15.1777   23.7336 C   0  0  0  0  0  0  0  0  0  0  0  0
   12.0236   15.7882   23.2112 F   0  0  0  0  0  0  0  0  0  0  0  0
   11.4031   14.3691   24.7205 F   0  0  0  0  0  0  0  0  0  0  0  0
   10.1822   16.1468   24.2878 F   0  0  0  0  0  0  0  0  0  0  0  0
  1  2  1  0
  2  3  1  0
  4  3  1  6
  4  5  1  0
  5  6  1  0
  6  7  2  0
  6  8  1  0
  8  9  1  0
  9 10  1  0
 10 11  1  0
 11 12  1  0
 12 13  1  0
  4 14  1  0
 14 15  1  0
 14 16  1  0
 14 17  1  0
 13  8  1  0
M  END
>  <inchikey>  (655) 
LOUAUNMHZDTLHZ-UHFFFAOYSA-N

>  <energy_score>  (655) 
-23.398141

>  <subsites>  (655) 
1 - Active Site

>  <alias>  (655) 
C1390-P214

>  <tags>  (655) 
openbind_a71ev2a_c1_scaffolds,BulkDock Fragalysis export,openbind_a71ev2a_c1_knitwork_impure,fragmenstein_placed

>  <distance_score>  (655) 
0.869234

>  <placement_batch>  (655) 
openbind_a71ev2a_c1_knitwork_impure

>  <name>  (655) 
C1390-P214

>  <ref_mols>  (655) 
A1778a,A3550a

>  <smiles>  (655) 
CCC[C@H](NC(=O)C1CCNCC1)C(F)(F)F

>  <HIPPO Compound ID>  (655) 
1353

>  <HIPPO Pose ID>  (655) 
465257

>  <ref_pdb>  (655) 
A2629a

$$$$
C7479-P171
     RDKit          3D

 23 24  0  0  0  0  0  0  0  0999 V2000
    3.5363   12.1445   18.0925 C   0  0  0  0  0  0  0  0  0  0  0  0
    3.4661   12.3517   19.5995 C   0  0  0  0  0  0  0  0  0  0  0  0
    2.4957   11.3568   20.2262 C   0  0  0  0  0  0  0  0  0  0  0  0
    3.0677   13.7270   19.9184 C   0  0  0  0  0  0  0  0  0  0  0  0
    2.0477   14.2190   19.1578 O   0  0  0  0  0  0  0  0  0  0  0  0
    1.8838   15.4726   19.6111 C   0  0  0  0  0  0  0  0  0  0  0  0
    2.6860   15.8072   20.5999 N   0  0  0  0  0  0  0  0  0  0  0  0
    3.4410   14.6848   20.8415 C   0  0  0  0  0  0  0  0  0  0  0  0
    4.4024   14.6180   21.9928 C   0  0  0  0  0  0  0  0  0  0  0  0
    5.6092   15.3902   21.7321 N   0  0  0  0  0  0  0  0  0  0  0  0
    7.0800   14.7126   22.1832 S   0  0  0  0  0  0  0  0  0  0  0  0
    6.9582   13.3612   21.6509 O   0  0  0  0  0  0  0  0  0  0  0  0
    8.0310   15.5528   21.4869 O   0  0  0  0  0  0  0  0  0  0  0  0
    6.9619   14.8322   23.7082 N   0  0  0  0  0  0  0  0  0  0  0  0
    8.2791   14.5173   24.4436 S   0  0  2  0  0  0  0  0  0  0  0  0
    8.0128   15.0733   26.1165 C   0  0  0  0  0  0  0  0  0  0  0  0
    9.5853   15.0365   24.0972 O   0  0  0  0  0  0  0  0  0  0  0  0
    8.5199   12.7437   24.6773 C   0  0  0  0  0  0  0  0  0  0  0  0
    9.3470   12.1288   23.5455 C   0  0  0  0  0  0  0  0  0  0  0  0
    9.4557   10.6061   23.5550 C   0  0  0  0  0  0  0  0  0  0  0  0
    8.2707    9.8403   24.1094 C   0  0  0  0  0  0  0  0  0  0  0  0
    7.4499   10.5369   25.1786 C   0  0  0  0  0  0  0  0  0  0  0  0
    7.2141   12.0061   24.8945 C   0  0  0  0  0  0  0  0  0  0  0  0
  1  2  1  0
  2  3  1  0
  2  4  1  0
  4  5  1  0
  5  6  1  0
  6  7  2  0
  7  8  1  0
  8  9  1  0
  9 10  1  0
 10 11  1  0
 11 12  2  0
 11 13  2  0
 11 14  1  0
 14 15  2  0
 15 16  1  1
 15 17  2  0
 15 18  1  0
 18 19  1  0
 19 20  1  0
 20 21  1  0
 21 22  1  0
 22 23  1  0
  8  4  2  0
 23 18  1  0
M  END
>  <inchikey>  (656) 
JCJVPBFEEQLMPB-UHFFFAOYSA-N

>  <energy_score>  (656) 
-237.387603

>  <subsites>  (656) 
1 - Active Site

>  <alias>  (656) 
C7479-P171

>  <tags>  (656) 
openbind_a71ev2a_c1_scaffolds,BulkDock Fragalysis export,openbind_a71ev2a_c1_knitwork_impure,fragmenstein_placed

>  <distance_score>  (656) 
0.840967

>  <placement_batch>  (656) 
openbind_a71ev2a_c1_knitwork_impure

>  <name>  (656) 
C7479-P171

>  <ref_mols>  (656) 
A3623a,A3581a

>  <smiles>  (656) 
CC(C)c1ocnc1CNS(=O)(=O)N=[S@](C)(=O)C1CCCCC1

>  <HIPPO Compound ID>  (656) 
4546

>  <HIPPO Pose ID>  (656) 
465699

>  <ref_pdb>  (656) 
A2629a

$$$$
C11236-P171
     RDKit          3D

 22 23  0  0  0  0  0  0  0  0999 V2000
    1.5139   12.6712   17.5163 C   0  0  0  0  0  0  0  0  0  0  0  0
    2.0670   14.0290   17.9256 C   0  0  0  0  0  0  0  0  0  0  0  0
    2.8122   13.9877   19.1894 C   0  0  0  0  0  0  0  0  0  0  0  0
    3.0951   14.9198   20.0914 N   0  0  0  0  0  0  0  0  0  0  0  0
    3.8493   14.2297   21.0281 C   0  0  0  0  0  0  0  0  0  0  0  0
    4.4215   14.8245   22.2686 C   0  0  0  0  0  0  0  0  0  0  0  0
    5.6632   15.5232   21.9534 N   0  0  0  0  0  0  0  0  0  0  0  0
    7.1046   14.7293   22.2805 S   0  0  0  0  0  0  0  0  0  0  0  0
    6.8709   13.3943   21.7448 O   0  0  0  0  0  0  0  0  0  0  0  0
    8.0679   15.5179   21.5411 O   0  0  0  0  0  0  0  0  0  0  0  0
    7.0619   14.8650   23.8081 N   0  0  0  0  0  0  0  0  0  0  0  0
    8.3791   14.4952   24.5042 S   0  0  2  0  0  0  0  0  0  0  0  0
    8.1502   15.0238   26.1919 C   0  0  0  0  0  0  0  0  0  0  0  0
    9.6893   15.0001   24.1516 O   0  0  0  0  0  0  0  0  0  0  0  0
    8.5705   12.7132   24.6935 C   0  0  0  0  0  0  0  0  0  0  0  0
    9.3487   12.0990   23.5295 C   0  0  0  0  0  0  0  0  0  0  0  0
    9.4583   10.5773   23.5520 C   0  0  0  0  0  0  0  0  0  0  0  0
    8.2659    9.8244   24.1080 C   0  0  0  0  0  0  0  0  0  0  0  0
    7.4534   10.5253   25.1818 C   0  0  0  0  0  0  0  0  0  0  0  0
    7.2490   12.0048   24.9247 C   0  0  0  0  0  0  0  0  0  0  0  0
    3.9434   12.9285   20.6183 C   0  0  0  0  0  0  0  0  0  0  0  0
    3.3226   12.7616   19.4522 O   0  0  0  0  0  0  0  0  0  0  0  0
  1  2  1  0
  2  3  1  0
  3  4  2  0
  4  5  1  0
  5  6  1  0
  6  7  1  0
  7  8  1  0
  8  9  2  0
  8 10  2  0
  8 11  1  0
 11 12  2  0
 12 13  1  1
 12 14  2  0
 12 15  1  0
 15 16  1  0
 16 17  1  0
 17 18  1  0
 18 19  1  0
 19 20  1  0
  5 21  2  0
 21 22  1  0
 22  3  1  0
 20 15  1  0
M  END
>  <inchikey>  (657) 
XGNYIJRUPNCYBP-UHFFFAOYSA-N

>  <energy_score>  (657) 
-76.732619

>  <subsites>  (657) 
1 - Active Site

>  <alias>  (657) 
C11236-P171

>  <tags>  (657) 
openbind_a71ev2a_c1_scaffolds,BulkDock Fragalysis export,openbind_a71ev2a_c1_knitwork_impure,fragmenstein_placed

>  <distance_score>  (657) 
0.863184

>  <placement_batch>  (657) 
openbind_a71ev2a_c1_knitwork_impure

>  <name>  (657) 
C11236-P171

>  <ref_mols>  (657) 
A3623a,A3581a

>  <smiles>  (657) 
CCc1nc(CNS(=O)(=O)N=[S@](C)(=O)C2CCCCC2)co1

>  <HIPPO Compound ID>  (657) 
14073

>  <HIPPO Pose ID>  (657) 
465700

>  <ref_pdb>  (657) 
A2629a

$$$$
C86475-P364
     RDKit          3D

 14 14  0  0  0  0  0  0  0  0999 V2000
    9.3840   11.4253   24.3600 C   0  0  0  0  0  0  0  0  0  0  0  0
    8.9450   12.8819   24.5555 C   0  0  0  0  0  0  0  0  0  0  0  0
    9.6891   13.5437   25.7207 C   0  0  0  0  0  0  0  0  0  0  0  0
    7.4529   12.8823   24.9561 C   0  0  0  0  0  0  0  0  0  0  0  0
    9.0947   13.6259   23.1929 C   0  0  0  0  0  0  0  0  0  0  0  0
    8.1674   13.5173   22.3767 O   0  0  0  0  0  0  0  0  0  0  0  0
   10.3294   14.5098   22.9274 C   0  0  1  0  0  0  0  0  0  0  0  0
   11.5658   13.8471   23.3582 C   0  0  0  0  0  0  0  0  0  0  0  0
   12.4847   13.3567   23.8748 N   0  0  0  0  0  0  0  0  0  0  0  0
   10.4618   14.9904   21.5108 C   0  0  0  0  0  0  0  0  0  0  0  0
    9.6709   15.9441   20.8966 C   0  0  0  0  0  0  0  0  0  0  0  0
   10.1638   16.1577   19.2724 S   0  0  0  0  0  0  0  0  0  0  0  0
   11.4227   15.0462   19.5121 C   0  0  0  0  0  0  0  0  0  0  0  0
   11.5053   14.5313   20.7160 N   0  0  0  0  0  0  0  0  0  0  0  0
  1  2  1  0
  2  3  1  0
  2  4  1  0
  2  5  1  0
  5  6  2  0
  5  7  1  0
  7  8  1  6
  8  9  3  0
  7 10  1  0
 10 11  2  0
 11 12  1  0
 12 13  1  0
 13 14  2  0
 14 10  1  0
M  END
>  <inchikey>  (658) 
VEMKUJOKEUNKTH-UHFFFAOYSA-N

>  <energy_score>  (658) 
-63.493059

>  <subsites>  (658) 
1 - Active Site

>  <alias>  (658) 
C86475-P364

>  <tags>  (658) 
openbind_a71ev2a_c1_scaffolds,BulkDock Fragalysis export,openbind_a71ev2a_c1_knitwork_impure,fragmenstein_placed

>  <distance_score>  (658) 
0.922039

>  <placement_batch>  (658) 
openbind_a71ev2a_c1_knitwork_impure

>  <name>  (658) 
C86475-P364

>  <ref_mols>  (658) 
A3306a,A4445b

>  <smiles>  (658) 
CC(C)(C)C(=O)[C@@H](C#N)c1cscn1

>  <HIPPO Compound ID>  (658) 
1841

>  <HIPPO Pose ID>  (658) 
466605

>  <ref_pdb>  (658) 
A2629a

$$$$
C86508-P364
     RDKit          3D

 13 13  0  0  0  0  0  0  0  0999 V2000
    9.5581    9.1892   22.7782 F   0  0  0  0  0  0  0  0  0  0  0  0
    9.6148    9.8276   23.9666 C   0  0  0  0  0  0  0  0  0  0  0  0
    8.5374    9.4297   24.6951 F   0  0  0  0  0  0  0  0  0  0  0  0
    9.5282   11.3217   23.7470 C   0  0  0  0  0  0  0  0  0  0  0  0
    9.8706   11.9951   24.9567 O   0  0  0  0  0  0  0  0  0  0  0  0
   10.1405   13.3782   24.7715 C   0  0  0  0  0  0  0  0  0  0  0  0
   11.5672   13.5631   24.2674 C   0  0  0  0  0  0  0  0  0  0  0  0
   11.9515   15.2976   23.9873 S   0  0  0  0  0  0  0  0  0  0  0  0
   11.0289   15.5113   22.5301 C   0  0  0  0  0  0  0  0  0  0  0  0
    9.7182   15.4647   22.5565 N   0  0  0  0  0  0  0  0  0  0  0  0
    9.2466   15.5875   21.2678 C   0  0  0  0  0  0  0  0  0  0  0  0
   10.2064   15.6947   20.2837 C   0  0  0  0  0  0  0  0  0  0  0  0
   11.7588   15.6554   20.9992 S   0  0  0  0  0  0  0  0  0  0  0  0
  1  2  1  0
  2  3  1  0
  2  4  1  0
  4  5  1  0
  5  6  1  0
  6  7  1  0
  7  8  1  0
  8  9  1  0
  9 10  2  0
 10 11  1  0
 11 12  2  0
 12 13  1  0
 13  9  1  0
M  END
>  <inchikey>  (659) 
WWTKBVZCSYFAEN-UHFFFAOYSA-N

>  <energy_score>  (659) 
-52.76769

>  <subsites>  (659) 
1 - Active Site

>  <alias>  (659) 
C86508-P364

>  <tags>  (659) 
openbind_a71ev2a_c1_scaffolds,BulkDock Fragalysis export,openbind_a71ev2a_c1_knitwork_impure,fragmenstein_placed

>  <distance_score>  (659) 
0.953098

>  <placement_batch>  (659) 
openbind_a71ev2a_c1_knitwork_impure

>  <name>  (659) 
C86508-P364

>  <ref_mols>  (659) 
A3306a,A4445b

>  <smiles>  (659) 
FC(F)COCCSc1nccs1

>  <HIPPO Compound ID>  (659) 
6001

>  <HIPPO Pose ID>  (659) 
466619

>  <ref_pdb>  (659) 
A2629a

$$$$
C2382-P264
     RDKit          3D

 15 15  0  0  0  0  0  0  0  0999 V2000
    8.3317   10.2574   24.1874 C   0  0  0  0  0  0  0  0  0  0  0  0
    7.6055   11.1466   25.1892 C   0  0  0  0  0  0  0  0  0  0  0  0
    6.4191   10.3841   25.7652 C   0  0  0  0  0  0  0  0  0  0  0  0
    7.1609   12.5243   24.6926 C   0  0  0  0  0  0  0  0  0  0  0  0
    8.2586   13.5919   24.5991 C   0  0  0  0  0  0  0  0  0  0  0  0
    8.7339   14.0236   25.6595 O   0  0  0  0  0  0  0  0  0  0  0  0
    8.7878   14.0193   23.1720 C   0  0  0  0  0  0  0  0  0  0  0  0
    7.6106   14.1151   22.1858 C   0  0  0  0  0  0  0  0  0  0  0  0
    9.7382   12.9019   22.7523 C   0  0  0  0  0  0  0  0  0  0  0  0
    9.4547   15.3543   23.2499 N   0  0  0  0  0  0  0  0  0  0  0  0
   10.7720   15.3826   23.9008 C   0  0  0  0  0  0  0  0  0  0  0  0
   11.9651   15.1018   22.9825 C   0  0  0  0  0  0  0  0  0  0  0  0
   11.9276   15.8950   21.6841 C   0  0  0  0  0  0  0  0  0  0  0  0
   10.5655   15.8048   21.0158 C   0  0  0  0  0  0  0  0  0  0  0  0
    9.4828   16.1742   22.0218 C   0  0  0  0  0  0  0  0  0  0  0  0
  1  2  1  0
  2  3  1  0
  2  4  1  0
  4  5  1  0
  5  6  2  0
  5  7  1  0
  7  8  1  0
  7  9  1  0
  7 10  1  0
 10 11  1  0
 11 12  1  0
 12 13  1  0
 13 14  1  0
 14 15  1  0
 15 10  1  0
M  END
>  <inchikey>  (660) 
LVVJGEHAZDHVAF-UHFFFAOYSA-N

>  <energy_score>  (660) 
-34.966504

>  <subsites>  (660) 
1 - Active Site

>  <alias>  (660) 
C2382-P264

>  <tags>  (660) 
openbind_a71ev2a_c1_scaffolds,BulkDock Fragalysis export,openbind_a71ev2a_c1_knitwork_impure,fragmenstein_placed

>  <distance_score>  (660) 
0.963821

>  <placement_batch>  (660) 
openbind_a71ev2a_c1_knitwork_impure

>  <name>  (660) 
C2382-P264

>  <ref_mols>  (660) 
A4012a,A1779a

>  <smiles>  (660) 
CC(C)CC(=O)C(C)(C)N1CCCCC1

>  <HIPPO Compound ID>  (660) 
29374

>  <HIPPO Pose ID>  (660) 
466774

>  <ref_pdb>  (660) 
A2629a

$$$$
C2414-P264
     RDKit          3D

 16 16  0  0  0  0  0  0  0  0999 V2000
    9.1369    9.7715   23.3102 C   0  0  0  0  0  0  0  0  0  0  0  0
    8.4368   10.4027   24.0535 C   0  0  0  0  0  0  0  0  0  0  0  0
    7.5723   11.0784   25.0287 C   0  0  0  0  0  0  0  0  0  0  0  0
    7.0563   12.4117   24.5434 C   0  0  0  0  0  0  0  0  0  0  0  0
    8.0353   13.5727   24.6005 C   0  0  0  0  0  0  0  0  0  0  0  0
    8.7400   13.7088   25.6107 O   0  0  0  0  0  0  0  0  0  0  0  0
    7.9708   14.6891   23.4739 C   0  0  1  0  0  0  0  0  0  0  0  0
    6.8966   14.3211   22.4218 C   0  0  0  0  0  0  0  0  0  0  0  0
    7.5169   15.9785   24.2426 C   0  0  0  0  0  0  0  0  0  0  0  0
    6.7486   17.0418   23.4640 C   0  0  0  0  0  0  0  0  0  0  0  0
    9.2996   14.7554   22.7730 N   0  0  0  0  0  0  0  0  0  0  0  0
   10.4511   15.0611   23.6450 C   0  0  0  0  0  0  0  0  0  0  0  0
   11.7809   14.9227   22.9049 C   0  0  0  0  0  0  0  0  0  0  0  0
   11.8338   15.8223   21.6841 C   0  0  0  0  0  0  0  0  0  0  0  0
   10.6365   15.5354   20.7996 C   0  0  0  0  0  0  0  0  0  0  0  0
    9.3338   15.6476   21.5923 C   0  0  0  0  0  0  0  0  0  0  0  0
  1  2  3  0
  2  3  1  0
  3  4  1  0
  4  5  1  0
  5  6  2  0
  5  7  1  0
  7  8  1  6
  7  9  1  0
  9 10  1  0
  7 11  1  0
 11 12  1  0
 12 13  1  0
 13 14  1  0
 14 15  1  0
 15 16  1  0
 16 11  1  0
M  END
>  <inchikey>  (661) 
VAVVBUAZZDYRRD-UHFFFAOYSA-N

>  <energy_score>  (661) 
-34.971681

>  <subsites>  (661) 
1 - Active Site

>  <alias>  (661) 
C2414-P264

>  <tags>  (661) 
openbind_a71ev2a_c1_scaffolds,BulkDock Fragalysis export,openbind_a71ev2a_c1_knitwork_impure,fragmenstein_placed

>  <distance_score>  (661) 
0.842628

>  <placement_batch>  (661) 
openbind_a71ev2a_c1_knitwork_impure

>  <name>  (661) 
C2414-P264

>  <ref_mols>  (661) 
A4012a,A1779a

>  <smiles>  (661) 
C#CCCC(=O)[C@@](C)(CC)N1CCCCC1

>  <HIPPO Compound ID>  (661) 
87747

>  <HIPPO Pose ID>  (661) 
466791

>  <ref_pdb>  (661) 
A2629a

$$$$
C40869-P176
     RDKit          3D

 14 14  0  0  0  0  0  0  0  0999 V2000
   11.8915   14.0889   22.9821 C   0  0  0  0  0  0  0  0  0  0  0  0
   10.6854   13.2008   22.7951 C   0  0  0  0  0  0  0  0  0  0  0  0
    9.9716   12.7185   24.0703 C   0  0  1  0  0  0  0  0  0  0  0  0
    9.8125   13.8544   25.0606 C   0  0  0  0  0  0  0  0  0  0  0  0
    8.6490   12.0622   23.6127 C   0  0  0  0  0  0  0  0  0  0  0  0
    7.6815   11.4965   24.6546 C   0  0  1  0  0  0  0  0  0  0  0  0
    8.3314   10.4125   25.3237 O   0  0  0  0  0  0  0  0  0  0  0  0
    7.0041   12.4724   25.6472 C   0  0  0  0  0  0  0  0  0  0  0  0
    6.8173   12.1251   26.8201 O   0  0  0  0  0  0  0  0  0  0  0  0
    6.5873   13.7730   25.1525 C   0  0  0  0  0  0  0  0  0  0  0  0
    6.5323   14.1838   23.8980 N   0  0  0  0  0  0  0  0  0  0  0  0
    6.1012   15.4840   23.9903 C   0  0  0  0  0  0  0  0  0  0  0  0
    5.9210   15.8194   25.3073 C   0  0  0  0  0  0  0  0  0  0  0  0
    6.2491   14.7401   26.0684 O   0  0  0  0  0  0  0  0  0  0  0  0
  1  2  1  0
  2  3  1  0
  3  4  1  1
  3  5  1  0
  5  6  1  0
  6  7  1  1
  6  8  1  0
  8  9  2  0
  8 10  1  0
 10 11  2  0
 11 12  1  0
 12 13  2  0
 13 14  1  0
 14 10  1  0
M  END
>  <inchikey>  (662) 
LCEGRNJGQNNSKF-UHFFFAOYSA-N

>  <energy_score>  (662) 
-39.031869

>  <subsites>  (662) 
1 - Active Site

>  <alias>  (662) 
C40869-P176

>  <tags>  (662) 
openbind_a71ev2a_c1_scaffolds,BulkDock Fragalysis export,openbind_a71ev2a_c1_knitwork_impure,fragmenstein_placed

>  <distance_score>  (662) 
0.774175

>  <placement_batch>  (662) 
openbind_a71ev2a_c1_knitwork_impure

>  <name>  (662) 
C40869-P176

>  <ref_mols>  (662) 
A3392a,A0719a

>  <smiles>  (662) 
CC[C@@H](C)C[C@@H](O)C(=O)c1ncco1

>  <HIPPO Compound ID>  (662) 
6254

>  <HIPPO Pose ID>  (662) 
468146

>  <ref_pdb>  (662) 
A2629a

$$$$
C1383-P278
     RDKit          3D

 13 13  0  0  0  0  0  0  0  0999 V2000
   11.2837   17.0581   27.3348 C   0  0  0  0  0  0  0  0  0  0  0  0
   10.8103   16.1829   26.3036 N   0  0  0  0  0  0  0  0  0  0  0  0
    9.5539   15.2677   26.2547 C   0  0  0  0  0  0  0  0  0  0  0  0
    8.7587   15.0312   27.0757 O   0  0  0  0  0  0  0  0  0  0  0  0
    9.5648   14.6261   24.8311 C   0  0  0  0  0  0  0  0  0  0  0  0
    8.2482   14.0857   24.4246 N   0  0  0  0  0  0  0  0  0  0  0  0
    8.1670   14.0054   22.9719 C   0  0  0  0  0  0  0  0  0  0  0  0
    7.8723   12.8528   25.1558 C   0  0  2  0  0  0  0  0  0  0  0  0
    7.7371   11.5638   24.3353 C   0  0  0  0  0  0  0  0  0  0  0  0
    7.2693   10.3937   25.1900 C   0  0  0  0  0  0  0  0  0  0  0  0
    6.0413   10.7142   26.0310 C   0  0  0  0  0  0  0  0  0  0  0  0
    6.1873   11.9454   26.7975 N   0  0  0  0  0  0  0  0  0  0  0  0
    6.5404   13.0785   25.9215 C   0  0  0  0  0  0  0  0  0  0  0  0
  1  2  1  0
  2  3  1  0
  3  4  2  0
  3  5  1  0
  5  6  1  0
  6  7  1  0
  8  6  1  6
  8  9  1  0
  9 10  1  0
 10 11  1  0
 11 12  1  0
 12 13  1  0
 13  8  1  0
M  END
>  <inchikey>  (663) 
ATACZHSZICCATA-UHFFFAOYSA-N

>  <energy_score>  (663) 
-35.893877

>  <subsites>  (663) 
1 - Active Site

>  <alias>  (663) 
C1383-P278

>  <tags>  (663) 
openbind_a71ev2a_c1_scaffolds,BulkDock Fragalysis export,openbind_a71ev2a_c1_knitwork_impure,fragmenstein_placed

>  <distance_score>  (663) 
0.978137

>  <placement_batch>  (663) 
openbind_a71ev2a_c1_knitwork_impure

>  <name>  (663) 
C1383-P278

>  <ref_mols>  (663) 
A1778a,A4035a

>  <smiles>  (663) 
CNC(=O)CN(C)[C@@H]1CCCNC1

>  <HIPPO Compound ID>  (663) 
4572

>  <HIPPO Pose ID>  (663) 
468768

>  <ref_pdb>  (663) 
A2629a

$$$$
C8052-P310
     RDKit          3D

 19 19  0  0  0  0  0  0  0  0999 V2000
   11.7924   16.1388   22.0695 C   0  0  0  0  0  0  0  0  0  0  0  0
   10.9735   15.2896   21.1047 C   0  0  0  0  0  0  0  0  0  0  0  0
   10.3313   16.1608   20.0141 C   0  0  0  0  0  0  0  0  0  0  0  0
   11.9510   14.3577   20.3937 C   0  0  0  0  0  0  0  0  0  0  0  0
    9.8326   14.5251   21.8308 C   0  0  0  0  0  0  0  0  0  0  0  0
   10.1453   13.9235   23.2185 C   0  0  1  0  0  0  0  0  0  0  0  0
    9.8851   14.8829   24.2978 N   0  0  0  0  0  0  0  0  0  0  0  0
   10.6306   15.1248   25.6201 C   0  0  0  0  0  0  0  0  0  0  0  0
   11.6147   14.6547   26.0290 O   0  0  0  0  0  0  0  0  0  0  0  0
    9.8256   16.0625   26.4858 C   0  0  0  0  0  0  0  0  0  0  0  0
   10.3070   16.4693   27.7236 C   0  0  0  0  0  0  0  0  0  0  0  0
    9.5259   17.3450   28.4730 C   0  0  0  0  0  0  0  0  0  0  0  0
    8.3011   17.7752   27.9671 C   0  0  0  0  0  0  0  0  0  0  0  0
    7.8983   17.3162   26.7226 C   0  0  0  0  0  0  0  0  0  0  0  0
    8.6362   16.4750   25.9653 N   0  0  0  0  0  0  0  0  0  0  0  0
    9.3159   12.6466   23.4559 C   0  0  0  0  0  0  0  0  0  0  0  0
    9.3231   12.2778   24.7602 F   0  0  0  0  0  0  0  0  0  0  0  0
    8.0214   12.8196   23.0880 F   0  0  0  0  0  0  0  0  0  0  0  0
    9.7894   11.5978   22.7527 F   0  0  0  0  0  0  0  0  0  0  0  0
  1  2  1  0
  2  3  1  0
  2  4  1  0
  2  5  1  0
  6  5  1  6
  6  7  1  0
  7  8  1  0
  8  9  2  0
  8 10  1  0
 10 11  2  0
 11 12  1  0
 12 13  2  0
 13 14  1  0
 14 15  2  0
  6 16  1  0
 16 17  1  0
 16 18  1  0
 16 19  1  0
 15 10  1  0
M  END
>  <inchikey>  (664) 
RRTBNFKCVDLBIR-UHFFFAOYSA-N

>  <energy_score>  (664) 
-13.971544

>  <subsites>  (664) 
6 - A0486/A/147/1,1 - Active Site

>  <alias>  (664) 
C8052-P310

>  <tags>  (664) 
openbind_a71ev2a_c1_scaffolds,BulkDock Fragalysis export,openbind_a71ev2a_c1_knitwork_impure,fragmenstein_placed

>  <distance_score>  (664) 
0.985767

>  <placement_batch>  (664) 
openbind_a71ev2a_c1_knitwork_impure

>  <name>  (664) 
C8052-P310

>  <ref_mols>  (664) 
A0486a,A4333a

>  <smiles>  (664) 
CC(C)(C)C[C@@H](NC(=O)c1ccccn1)C(F)(F)F

>  <HIPPO Compound ID>  (664) 
16798

>  <HIPPO Pose ID>  (664) 
469093

>  <ref_pdb>  (664) 
A2629a

$$$$
C10646-P363
     RDKit          3D

 14 14  0  0  0  0  0  0  0  0999 V2000
    4.3617   15.0886   22.9007 C   0  0  0  0  0  0  0  0  0  0  0  0
    5.5999   15.8570   22.4422 C   0  0  0  0  0  0  0  0  0  0  0  0
    6.9794   15.1944   22.7390 C   0  0  0  0  0  0  0  0  0  0  0  0
    6.9214   13.7481   22.2841 C   0  0  0  0  0  0  0  0  0  0  0  0
    8.0641   15.9148   21.9156 C   0  0  0  0  0  0  0  0  0  0  0  0
    7.3197   15.3037   24.2478 C   0  0  0  0  0  0  0  0  0  0  0  0
    8.5637   14.5369   24.7368 C   0  0  0  0  0  0  0  0  0  0  0  0
    8.3256   13.0498   24.9482 C   0  0  0  0  0  0  0  0  0  0  0  0
    8.9349   12.2014   24.2968 O   0  0  0  0  0  0  0  0  0  0  0  0
    7.3385   12.6808   25.9489 C   0  0  0  0  0  0  0  0  0  0  0  0
    6.7548   11.4484   26.1181 C   0  0  0  0  0  0  0  0  0  0  0  0
    5.8174   11.5545   27.1049 O   0  0  0  0  0  0  0  0  0  0  0  0
    5.9027   12.8540   27.4990 C   0  0  0  0  0  0  0  0  0  0  0  0
    6.8089   13.5643   26.8716 N   0  0  0  0  0  0  0  0  0  0  0  0
  1  2  1  0
  2  3  1  0
  3  4  1  0
  3  5  1  0
  3  6  1  0
  6  7  1  0
  7  8  1  0
  8  9  2  0
  8 10  1  0
 10 11  2  0
 11 12  1  0
 12 13  1  0
 13 14  2  0
 14 10  1  0
M  END
>  <inchikey>  (665) 
DUYGGZWMEYALFM-UHFFFAOYSA-N

>  <energy_score>  (665) 
-50.880829

>  <subsites>  (665) 
1 - Active Site

>  <alias>  (665) 
C10646-P363

>  <tags>  (665) 
openbind_a71ev2a_c1_scaffolds,BulkDock Fragalysis export,openbind_a71ev2a_c1_knitwork_impure,fragmenstein_placed

>  <distance_score>  (665) 
0.871514

>  <placement_batch>  (665) 
openbind_a71ev2a_c1_knitwork_impure

>  <name>  (665) 
C10646-P363

>  <ref_mols>  (665) 
A3623a,A4445a

>  <smiles>  (665) 
CCC(C)(C)CCC(=O)c1cocn1

>  <HIPPO Compound ID>  (665) 
12436

>  <HIPPO Pose ID>  (665) 
469346

>  <ref_pdb>  (665) 
A2629a

$$$$
C22804-P550
     RDKit          3D

 22 23  0  0  0  0  0  0  0  0999 V2000
    6.8034   16.6701   22.5421 C   0  0  0  0  0  0  0  0  0  0  0  0
    7.2124   15.2200   22.6980 C   0  0  0  0  0  0  0  0  0  0  0  0
    8.4321   15.0643   23.6219 C   0  0  1  0  0  0  0  0  0  0  0  0
    8.2100   13.7363   24.3721 C   0  0  0  0  0  0  0  0  0  0  0  0
    7.5662   13.6869   25.3488 O   0  0  0  0  0  0  0  0  0  0  0  0
    8.8784   12.5966   23.5443 N   0  0  0  0  0  0  0  0  0  0  0  0
    8.8133   11.2455   23.6891 C   0  0  0  0  0  0  0  0  0  0  0  0
    9.3679   10.2775   22.9006 C   0  0  0  0  0  0  0  0  0  0  0  0
    8.9916    9.0695   23.4229 N   0  0  0  0  0  0  0  0  0  0  0  0
    8.1493    9.1966   24.4609 N   0  0  0  0  0  0  0  0  0  0  0  0
    8.1300   10.5105   24.6516 C   0  0  0  0  0  0  0  0  0  0  0  0
    7.5601   10.9846   25.7587 O   0  0  0  0  0  0  0  0  0  0  0  0
    6.1577   10.9003   25.6667 C   0  0  0  0  0  0  0  0  0  0  0  0
    5.4965   11.2273   26.9792 C   0  0  0  0  0  0  0  0  0  0  0  0
    5.6791   10.2156   27.8662 F   0  0  0  0  0  0  0  0  0  0  0  0
    6.0081   12.3449   27.5337 F   0  0  0  0  0  0  0  0  0  0  0  0
    9.7450   15.0955   22.9746 N   0  0  0  0  0  0  0  0  0  0  0  0
    9.9898   15.2592   21.5562 C   0  0  0  0  0  0  0  0  0  0  0  0
   11.4430   15.6909   21.4915 C   0  0  0  0  0  0  0  0  0  0  0  0
   12.0642   15.1188   22.7518 C   0  0  0  0  0  0  0  0  0  0  0  0
   10.9193   15.1412   23.7198 C   0  0  0  0  0  0  0  0  0  0  0  0
   11.0118   15.1217   24.9361 O   0  0  0  0  0  0  0  0  0  0  0  0
  1  2  1  0
  3  2  1  6
  3  4  1  0
  4  5  2  0
  4  6  1  0
  6  7  1  0
  7  8  2  0
  8  9  1  0
  9 10  1  0
 10 11  2  0
 11 12  1  0
 12 13  1  0
 13 14  1  0
 14 15  1  0
 14 16  1  0
  3 17  1  0
 17 18  1  0
 18 19  1  0
 19 20  1  0
 20 21  1  0
 21 22  2  0
 11  7  1  0
 21 17  1  0
M  END
>  <inchikey>  (666) 
IXLQNKZHEBQVQI-UHFFFAOYSA-N

>  <energy_score>  (666) 
-16.918807

>  <subsites>  (666) 
1 - Active Site

>  <alias>  (666) 
C22804-P550

>  <tags>  (666) 
openbind_a71ev2a_c1_scaffolds,BulkDock Fragalysis export,openbind_a71ev2a_c1_knitwork_impure,fragmenstein_placed

>  <distance_score>  (666) 
0.81214

>  <placement_batch>  (666) 
openbind_a71ev2a_c1_knitwork_impure

>  <name>  (666) 
C22804-P550

>  <ref_mols>  (666) 
A0556a,A5036a

>  <smiles>  (666) 
CC[C@@H](C(=O)Nc1c[nH]nc1OCC(F)F)N1CCCC1=O

>  <HIPPO Compound ID>  (666) 
15324

>  <HIPPO Pose ID>  (666) 
469583

>  <ref_pdb>  (666) 
A0556a

$$$$
C9811-P205
     RDKit          3D

 14 14  0  0  0  0  0  0  0  0999 V2000
   11.3867   14.8261   18.4114 N   0  0  0  0  0  0  0  0  0  0  0  0
   11.6023   15.1539   19.5018 C   0  0  0  0  0  0  0  0  0  0  0  0
   11.9351   15.5278   20.8786 C   0  0  0  0  0  0  0  0  0  0  0  0
   10.7440   16.1095   21.6300 C   0  0  0  0  0  0  0  0  0  0  0  0
    9.6612   15.0932   21.9985 C   0  0  0  0  0  0  0  0  0  0  0  0
   10.1368   14.0649   23.0209 C   0  0  0  0  0  0  0  0  0  0  0  0
    9.0272   13.2882   23.5043 N   0  0  0  0  0  0  0  0  0  0  0  0
    8.2466   13.3703   24.8461 C   0  0  0  0  0  0  0  0  0  0  0  0
    8.3367   14.1299   25.7279 O   0  0  0  0  0  0  0  0  0  0  0  0
    7.1842   12.2653   24.7766 C   0  0  1  0  0  0  0  0  0  0  0  0
    7.7703   10.8681   24.6436 C   0  0  0  0  0  0  0  0  0  0  0  0
    6.8057    9.9780   25.3833 C   0  0  0  0  0  0  0  0  0  0  0  0
    6.3732   10.7947   26.5053 N   0  0  0  0  0  0  0  0  0  0  0  0
    6.2875   12.1791   26.0137 C   0  0  0  0  0  0  0  0  0  0  0  0
  1  2  3  0
  2  3  1  0
  3  4  1  0
  4  5  1  0
  5  6  1  0
  6  7  1  0
  7  8  1  0
  8  9  2  0
 10  8  1  1
 10 11  1  0
 11 12  1  0
 12 13  1  0
 13 14  1  0
 14 10  1  0
M  END
>  <inchikey>  (667) 
IQWZYMQRGQLZOU-UHFFFAOYSA-N

>  <energy_score>  (667) 
-2.008569

>  <subsites>  (667) 
1 - Active Site

>  <alias>  (667) 
C9811-P205

>  <tags>  (667) 
openbind_a71ev2a_c1_scaffolds,BulkDock Fragalysis export,openbind_a71ev2a_c1_knitwork_impure,fragmenstein_placed

>  <distance_score>  (667) 
0.920606

>  <placement_batch>  (667) 
openbind_a71ev2a_c1_knitwork_impure

>  <name>  (667) 
C9811-P205

>  <ref_mols>  (667) 
A1778a,A3694a

>  <smiles>  (667) 
N#CCCCCNC(=O)[C@H]1CCNC1

>  <HIPPO Compound ID>  (667) 
4102

>  <HIPPO Pose ID>  (667) 
470084

>  <ref_pdb>  (667) 
A0556a

$$$$
C14769-P58
     RDKit          3D

 14 15  0  0  0  0  0  0  0  0999 V2000
    5.1343   13.5957    1.4484 O   0  0  0  0  0  0  0  0  0  0  0  0
    5.3522   13.7610    2.6457 C   0  0  0  0  0  0  0  0  0  0  0  0
    5.1345   15.0838    3.3288 C   0  0  0  0  0  0  0  0  0  0  0  0
    6.1284   15.3771    4.4222 C   0  0  0  0  0  0  0  0  0  0  0  0
    6.3142   16.5262    4.8276 O   0  0  0  0  0  0  0  0  0  0  0  0
    6.8249   14.2217    5.1149 C   0  0  0  0  0  0  0  0  0  0  0  0
    7.1504   13.0850    4.1436 C   0  0  0  0  0  0  0  0  0  0  0  0
    8.1768   13.4223    3.0682 C   0  0  0  0  0  0  0  0  0  0  0  0
    8.5290   12.4504    2.1218 C   0  0  0  0  0  0  0  0  0  0  0  0
    9.4173   12.7567    1.0956 C   0  0  0  0  0  0  0  0  0  0  0  0
    9.9645   14.0251    1.0591 C   0  0  0  0  0  0  0  0  0  0  0  0
    9.6927   14.9806    1.9712 N   0  0  0  0  0  0  0  0  0  0  0  0
    8.7950   14.6669    2.9316 C   0  0  0  0  0  0  0  0  0  0  0  0
    5.8287   12.6292    3.5164 C   0  0  0  0  0  0  0  0  0  0  0  0
  1  2  2  0
  2  3  1  0
  3  4  1  0
  4  5  2  0
  4  6  1  0
  6  7  1  0
  7  8  1  0
  8  9  2  0
  9 10  1  0
 10 11  2  0
 11 12  1  0
 12 13  2  0
  7 14  1  0
 14  2  1  0
 13  8  1  0
M  END
>  <inchikey>  (668) 
GFAIQXCMYIWPBA-UHFFFAOYSA-N

>  <energy_score>  (668) 
-8.884499

>  <subsites>  (668) 
3 - A0541/A/147/1

>  <alias>  (668) 
C14769-P58

>  <tags>  (668) 
openbind_a71ev2a_c1_scaffolds,BulkDock Fragalysis export,openbind_a71ev2a_c1_knitwork_impure,fragmenstein_placed

>  <distance_score>  (668) 
0.9965

>  <placement_batch>  (668) 
openbind_a71ev2a_c1_knitwork_impure

>  <name>  (668) 
C14769-P58

>  <ref_mols>  (668) 
A0354a,A0428a

>  <smiles>  (668) 
O=C1CC(=O)CC(c2cccnc2)C1

>  <HIPPO Compound ID>  (668) 
3511

>  <HIPPO Pose ID>  (668) 
470247

>  <ref_pdb>  (668) 
A0556a

$$$$
C4666-P229
     RDKit          3D

 10 10  0  0  0  0  0  0  0  0999 V2000
    8.4181   13.7530   25.3234 C   0  0  0  0  0  0  0  0  0  0  0  0
    8.7396   13.2707   23.9135 C   0  0  2  0  0  0  0  0  0  0  0  0
    9.1147   11.7958   23.9616 C   0  0  0  0  0  0  0  0  0  0  0  0
    8.8028   11.0397   24.8831 O   0  0  0  0  0  0  0  0  0  0  0  0
    9.7655   14.1533   23.3431 N   0  0  0  0  0  0  0  0  0  0  0  0
   11.1560   13.9264   23.7361 C   0  0  0  0  0  0  0  0  0  0  0  0
   12.0412   15.1128   23.3013 C   0  0  0  0  0  0  0  0  0  0  0  0
   11.9884   15.3936   21.8651 N   0  0  0  0  0  0  0  0  0  0  0  0
   10.5877   15.5702   21.4449 C   0  0  0  0  0  0  0  0  0  0  0  0
    9.6548   14.4197   21.9011 C   0  0  0  0  0  0  0  0  0  0  0  0
  2  1  1  1
  2  3  1  0
  3  4  2  0
  2  5  1  0
  5  6  1  0
  6  7  1  0
  7  8  1  0
  8  9  1  0
  9 10  1  0
 10  5  1  0
M  END
>  <inchikey>  (669) 
PFGLLURXEHPOCK-UHFFFAOYSA-N

>  <energy_score>  (669) 
-24.683541

>  <subsites>  (669) 
1 - Active Site

>  <alias>  (669) 
C4666-P229

>  <tags>  (669) 
openbind_a71ev2a_c1_scaffolds,BulkDock Fragalysis export,openbind_a71ev2a_c1_knitwork_impure,fragmenstein_placed

>  <distance_score>  (669) 
0.829208

>  <placement_batch>  (669) 
openbind_a71ev2a_c1_knitwork_impure

>  <name>  (669) 
C4666-P229

>  <ref_mols>  (669) 
A1775a,A3869a

>  <smiles>  (669) 
C[C@H](C=O)N1CCNCC1

>  <HIPPO Compound ID>  (669) 
15369

>  <HIPPO Pose ID>  (669) 
470312

>  <ref_pdb>  (669) 
A0556a

$$$$
C7479-P564
     RDKit          3D

 23 24  0  0  0  0  0  0  0  0999 V2000
    2.3732   11.1262   18.7582 C   0  0  0  0  0  0  0  0  0  0  0  0
    2.4991   11.9017   20.0432 C   0  0  0  0  0  0  0  0  0  0  0  0
    1.3414   11.8798   21.0334 C   0  0  0  0  0  0  0  0  0  0  0  0
    2.7282   13.2897   19.7014 C   0  0  0  0  0  0  0  0  0  0  0  0
    1.7761   13.9164   18.9709 O   0  0  0  0  0  0  0  0  0  0  0  0
    2.2028   15.1907   18.9738 C   0  0  0  0  0  0  0  0  0  0  0  0
    3.3316   15.3984   19.6213 N   0  0  0  0  0  0  0  0  0  0  0  0
    3.6949   14.1640   20.1008 C   0  0  0  0  0  0  0  0  0  0  0  0
    4.7913   13.7966   21.0865 C   0  0  0  0  0  0  0  0  0  0  0  0
    5.9375   14.7063   21.2231 N   0  0  0  0  0  0  0  0  0  0  0  0
    7.2403   14.2629   22.1405 S   0  0  0  0  0  0  0  0  0  0  0  0
    7.1570   12.8189   22.0231 O   0  0  0  0  0  0  0  0  0  0  0  0
    8.3312   14.8835   21.4173 O   0  0  0  0  0  0  0  0  0  0  0  0
    6.9190   14.7537   23.5572 N   0  0  0  0  0  0  0  0  0  0  0  0
    8.1328   14.4774   24.4808 S   0  0  2  0  0  0  0  0  0  0  0  0
    7.6640   15.1053   26.0801 C   0  0  0  0  0  0  0  0  0  0  0  0
    9.4718   14.9947   24.2774 O   0  0  0  0  0  0  0  0  0  0  0  0
    8.3586   12.7169   24.8202 C   0  0  0  0  0  0  0  0  0  0  0  0
    9.3542   12.0426   23.8603 C   0  0  0  0  0  0  0  0  0  0  0  0
    9.3397   10.5151   23.8322 C   0  0  0  0  0  0  0  0  0  0  0  0
    8.0208    9.8526   24.1747 C   0  0  0  0  0  0  0  0  0  0  0  0
    7.2489   10.5118   25.2974 C   0  0  0  0  0  0  0  0  0  0  0  0
    7.0384   11.9894   25.0419 C   0  0  0  0  0  0  0  0  0  0  0  0
  1  2  1  0
  2  3  1  0
  2  4  1  0
  4  5  1  0
  5  6  1  0
  6  7  2  0
  7  8  1  0
  8  9  1  0
  9 10  1  0
 10 11  1  0
 11 12  2  0
 11 13  2  0
 11 14  1  0
 14 15  2  0
 15 16  1  1
 15 17  2  0
 15 18  1  0
 18 19  1  0
 19 20  1  0
 20 21  1  0
 21 22  1  0
 22 23  1  0
  8  4  2  0
 23 18  1  0
M  END
>  <inchikey>  (670) 
IFWHXWDSJNOWHX-UHFFFAOYSA-N

>  <energy_score>  (670) 
-217.287941

>  <subsites>  (670) 
1 - Active Site

>  <alias>  (670) 
C7479-P564

>  <tags>  (670) 
openbind_a71ev2a_c1_scaffolds,BulkDock Fragalysis export,openbind_a71ev2a_c1_knitwork_impure,fragmenstein_placed

>  <distance_score>  (670) 
0.98809

>  <placement_batch>  (670) 
openbind_a71ev2a_c1_knitwork_impure

>  <name>  (670) 
C7479-P564

>  <ref_mols>  (670) 
A3623a,A5091a

>  <smiles>  (670) 
CC(C)c1ocnc1CNS(=O)(=O)N=[S@](C)(=O)C1CCCCC1

>  <HIPPO Compound ID>  (670) 
12140

>  <HIPPO Pose ID>  (670) 
470379

>  <ref_pdb>  (670) 
A0556a

$$$$
C15027-P348
     RDKit          3D

 13 13  0  0  0  0  0  0  0  0999 V2000
   11.8903   14.7441   22.9107 C   0  0  0  0  0  0  0  0  0  0  0  0
   10.7012   15.0922   23.4156 C   0  0  0  0  0  0  0  0  0  0  0  0
    9.3995   14.8847   22.6979 C   0  0  0  0  0  0  0  0  0  0  0  0
    8.5713   13.7073   23.2024 C   0  0  0  0  0  0  0  0  0  0  0  0
    7.7690   13.1462   22.4452 O   0  0  0  0  0  0  0  0  0  0  0  0
    8.6499   13.3583   24.6943 C   0  0  1  0  0  0  0  0  0  0  0  0
    8.0107   14.4077   25.4193 O   0  0  0  0  0  0  0  0  0  0  0  0
    8.0597   12.0071   25.0410 C   0  0  0  0  0  0  0  0  0  0  0  0
    6.9876   11.8529   25.9281 C   0  0  0  0  0  0  0  0  0  0  0  0
    6.5197   10.5780   26.1977 C   0  0  0  0  0  0  0  0  0  0  0  0
    7.0552    9.4595   25.6708 N   0  0  0  0  0  0  0  0  0  0  0  0
    8.0923    9.6248   24.8207 C   0  0  0  0  0  0  0  0  0  0  0  0
    8.6170   10.8548   24.4773 C   0  0  0  0  0  0  0  0  0  0  0  0
  1  2  2  0
  2  3  1  0
  3  4  1  0
  4  5  2  0
  4  6  1  0
  6  7  1  1
  6  8  1  0
  8  9  2  0
  9 10  1  0
 10 11  2  0
 11 12  1  0
 12 13  2  0
 13  8  1  0
M  END
>  <inchikey>  (671) 
ANGWTGNRJJVGJX-UHFFFAOYSA-N

>  <energy_score>  (671) 
-8.226789

>  <subsites>  (671) 
1 - Active Site

>  <alias>  (671) 
C15027-P348

>  <tags>  (671) 
openbind_a71ev2a_c1_scaffolds,BulkDock Fragalysis export,openbind_a71ev2a_c1_knitwork_impure,fragmenstein_placed

>  <distance_score>  (671) 
0.896411

>  <placement_batch>  (671) 
openbind_a71ev2a_c1_knitwork_impure

>  <name>  (671) 
C15027-P348

>  <ref_mols>  (671) 
A4388a,A0719a

>  <smiles>  (671) 
C=CCC(=O)[C@@H](O)c1ccncc1

>  <HIPPO Compound ID>  (671) 
5284

>  <HIPPO Pose ID>  (671) 
471091

>  <ref_pdb>  (671) 
A0556a

$$$$
C15044-P348
     RDKit          3D

 15 15  0  0  0  0  0  0  0  0999 V2000
   10.4977   15.2771   19.6990 N   0  0  0  0  0  0  0  0  0  0  0  0
   11.2609   15.5069   20.5381 C   0  0  0  0  0  0  0  0  0  0  0  0
   12.1477   15.8201   21.6548 C   0  0  0  0  0  0  0  0  0  0  0  0
   12.0679   14.7844   22.7765 C   0  0  0  0  0  0  0  0  0  0  0  0
   10.7541   14.8112   23.5499 C   0  0  0  0  0  0  0  0  0  0  0  0
    9.7105   14.1400   22.7944 N   0  0  0  0  0  0  0  0  0  0  0  0
    8.3213   13.6464   23.5764 S   0  0  0  0  0  0  0  0  0  0  0  0
    8.2029   14.4155   24.7964 O   0  0  0  0  0  0  0  0  0  0  0  0
    7.2890   13.5803   22.5645 O   0  0  0  0  0  0  0  0  0  0  0  0
    8.5881   11.9699   24.0793 C   0  0  0  0  0  0  0  0  0  0  0  0
    7.7456   11.4267   25.0379 C   0  0  0  0  0  0  0  0  0  0  0  0
    7.8297   10.0624   25.2401 C   0  0  0  0  0  0  0  0  0  0  0  0
    8.7333    9.3265   24.4777 C   0  0  0  0  0  0  0  0  0  0  0  0
    9.5382    9.9688   23.5565 C   0  0  0  0  0  0  0  0  0  0  0  0
    9.5065   11.2922   23.3507 N   0  0  0  0  0  0  0  0  0  0  0  0
  1  2  3  0
  2  3  1  0
  3  4  1  0
  4  5  1  0
  5  6  1  0
  6  7  1  0
  7  8  2  0
  7  9  2  0
  7 10  1  0
 10 11  2  0
 11 12  1  0
 12 13  2  0
 13 14  1  0
 14 15  2  0
 15 10  1  0
M  END
>  <inchikey>  (672) 
CNWCZZAACSBMEQ-UHFFFAOYSA-N

>  <energy_score>  (672) 
-36.333431

>  <subsites>  (672) 
1 - Active Site

>  <alias>  (672) 
C15044-P348

>  <tags>  (672) 
openbind_a71ev2a_c1_scaffolds,BulkDock Fragalysis export,openbind_a71ev2a_c1_knitwork_impure,fragmenstein_placed

>  <distance_score>  (672) 
0.893014

>  <placement_batch>  (672) 
openbind_a71ev2a_c1_knitwork_impure

>  <name>  (672) 
C15044-P348

>  <ref_mols>  (672) 
A4388a,A0719a

>  <smiles>  (672) 
N#CCCCNS(=O)(=O)c1ccccn1

>  <HIPPO Compound ID>  (672) 
12512

>  <HIPPO Pose ID>  (672) 
471105

>  <ref_pdb>  (672) 
A0556a

$$$$
C15051-P348
     RDKit          3D

 14 14  0  0  0  0  0  0  0  0999 V2000
    8.1181   14.8307   25.1587 C   0  0  0  0  0  0  0  0  0  0  0  0
    8.7449   13.5064   24.6979 C   0  0  2  0  0  0  0  0  0  0  0  0
   10.0520   13.4433   25.2850 O   0  0  0  0  0  0  0  0  0  0  0  0
    8.7337   13.5501   23.1542 C   0  0  0  0  0  0  0  0  0  0  0  0
    7.7551   13.1922   22.4854 O   0  0  0  0  0  0  0  0  0  0  0  0
    9.9645   14.1466   22.5085 C   0  0  0  0  0  0  0  0  0  0  0  0
   10.6767   14.9221   23.3883 F   0  0  0  0  0  0  0  0  0  0  0  0
    9.6440   14.9796   21.4801 F   0  0  0  0  0  0  0  0  0  0  0  0
    8.0016   12.2598   25.1695 C   0  0  0  0  0  0  0  0  0  0  0  0
    6.8937   12.3189   26.0179 C   0  0  0  0  0  0  0  0  0  0  0  0
    6.2670   11.1422   26.4076 C   0  0  0  0  0  0  0  0  0  0  0  0
    6.7501    9.9338   25.9371 C   0  0  0  0  0  0  0  0  0  0  0  0
    7.8560    9.9435   25.1056 C   0  0  0  0  0  0  0  0  0  0  0  0
    8.4941   11.0703   24.7318 N   0  0  0  0  0  0  0  0  0  0  0  0
  2  1  1  1
  2  3  1  0
  2  4  1  0
  4  5  2  0
  4  6  1  0
  6  7  1  0
  6  8  1  0
  2  9  1  0
  9 10  2  0
 10 11  1  0
 11 12  2  0
 12 13  1  0
 13 14  2  0
 14  9  1  0
M  END
>  <inchikey>  (673) 
PRRYMKYLPMALBW-UHFFFAOYSA-N

>  <energy_score>  (673) 
-15.791565

>  <subsites>  (673) 
1 - Active Site

>  <alias>  (673) 
C15051-P348

>  <tags>  (673) 
openbind_a71ev2a_c1_scaffolds,BulkDock Fragalysis export,openbind_a71ev2a_c1_knitwork_impure,fragmenstein_placed

>  <distance_score>  (673) 
0.802909

>  <placement_batch>  (673) 
openbind_a71ev2a_c1_knitwork_impure

>  <name>  (673) 
C15051-P348

>  <ref_mols>  (673) 
A4388a,A0719a

>  <smiles>  (673) 
C[C@](O)(C(=O)C(F)F)c1ccccn1

>  <HIPPO Compound ID>  (673) 
6122

>  <HIPPO Pose ID>  (673) 
471111

>  <ref_pdb>  (673) 
A0556a

$$$$
C15065-P348
     RDKit          3D

 13 13  0  0  0  0  0  0  0  0999 V2000
   11.8963   15.1693   22.8914 C   0  0  0  0  0  0  0  0  0  0  0  0
   10.9582   14.3040   23.5176 O   0  0  0  0  0  0  0  0  0  0  0  0
    9.6753   14.4001   22.8983 C   0  0  0  0  0  0  0  0  0  0  0  0
    8.8289   13.1881   23.2907 C   0  0  2  0  0  0  0  0  0  0  0  0
    7.6428   13.1265   22.4850 O   0  0  0  0  0  0  0  0  0  0  0  0
    8.3840   13.2292   24.7469 C   0  0  0  0  0  0  0  0  0  0  0  0
    8.4535   14.2407   25.4435 O   0  0  0  0  0  0  0  0  0  0  0  0
    7.6974   12.0419   25.3118 C   0  0  0  0  0  0  0  0  0  0  0  0
    6.7360   12.2507   26.3055 C   0  0  0  0  0  0  0  0  0  0  0  0
    6.0265   11.1732   26.8198 C   0  0  0  0  0  0  0  0  0  0  0  0
    6.3145    9.9140   26.3314 C   0  0  0  0  0  0  0  0  0  0  0  0
    7.2592    9.6669   25.3979 N   0  0  0  0  0  0  0  0  0  0  0  0
    7.9275   10.7383   24.8968 C   0  0  0  0  0  0  0  0  0  0  0  0
  1  2  1  0
  2  3  1  0
  3  4  1  0
  4  5  1  6
  4  6  1  0
  6  7  2  0
  6  8  1  0
  8  9  2  0
  9 10  1  0
 10 11  2  0
 11 12  1  0
 12 13  2  0
 13  8  1  0
M  END
>  <inchikey>  (674) 
TUJBPBYAHMFXCP-UHFFFAOYSA-N

>  <energy_score>  (674) 
-22.715113

>  <subsites>  (674) 
1 - Active Site

>  <alias>  (674) 
C15065-P348

>  <tags>  (674) 
openbind_a71ev2a_c1_scaffolds,BulkDock Fragalysis export,openbind_a71ev2a_c1_knitwork_impure,fragmenstein_placed

>  <distance_score>  (674) 
0.835395

>  <placement_batch>  (674) 
openbind_a71ev2a_c1_knitwork_impure

>  <name>  (674) 
C15065-P348

>  <ref_mols>  (674) 
A4388a,A0719a

>  <smiles>  (674) 
COC[C@H](O)C(=O)c1cccnc1

>  <HIPPO Compound ID>  (674) 
9551

>  <HIPPO Pose ID>  (674) 
471123

>  <ref_pdb>  (674) 
A0556a

$$$$
C15067-P348
     RDKit          3D

 15 15  0  0  0  0  0  0  0  0999 V2000
   11.4470   15.2555   20.3535 C   0  0  0  0  0  0  0  0  0  0  0  0
   11.8099   15.8702   21.6996 C   0  0  0  0  0  0  0  0  0  0  0  0
   11.8335   14.8723   22.8587 C   0  0  0  0  0  0  0  0  0  0  0  0
   10.5630   14.6790   23.4997 O   0  0  0  0  0  0  0  0  0  0  0  0
    9.6181   14.0755   22.6265 C   0  0  0  0  0  0  0  0  0  0  0  0
    8.5509   13.2470   23.3191 C   0  0  0  0  0  0  0  0  0  0  0  0
    7.5805   12.8480   22.6697 O   0  0  0  0  0  0  0  0  0  0  0  0
    8.7828   12.9196   24.7870 C   0  0  1  0  0  0  0  0  0  0  0  0
    8.7297   14.1222   25.5574 O   0  0  0  0  0  0  0  0  0  0  0  0
    7.8312   11.8891   25.3447 C   0  0  0  0  0  0  0  0  0  0  0  0
    6.7704   12.2273   26.1895 C   0  0  0  0  0  0  0  0  0  0  0  0
    5.9392   11.2350   26.6961 C   0  0  0  0  0  0  0  0  0  0  0  0
    6.1906    9.9249   26.3371 C   0  0  0  0  0  0  0  0  0  0  0  0
    7.1976    9.5515   25.5221 N   0  0  0  0  0  0  0  0  0  0  0  0
    7.9824   10.5392   25.0319 C   0  0  0  0  0  0  0  0  0  0  0  0
  1  2  1  0
  2  3  1  0
  3  4  1  0
  4  5  1  0
  5  6  1  0
  6  7  2  0
  6  8  1  0
  8  9  1  1
  8 10  1  0
 10 11  2  0
 11 12  1  0
 12 13  2  0
 13 14  1  0
 14 15  2  0
 15 10  1  0
M  END
>  <inchikey>  (675) 
JDNYYFHSMGZRFL-UHFFFAOYSA-N

>  <energy_score>  (675) 
-21.530959

>  <subsites>  (675) 
1 - Active Site

>  <alias>  (675) 
C15067-P348

>  <tags>  (675) 
openbind_a71ev2a_c1_scaffolds,BulkDock Fragalysis export,openbind_a71ev2a_c1_knitwork_impure,fragmenstein_placed

>  <distance_score>  (675) 
0.948236

>  <placement_batch>  (675) 
openbind_a71ev2a_c1_knitwork_impure

>  <name>  (675) 
C15067-P348

>  <ref_mols>  (675) 
A4388a,A0719a

>  <smiles>  (675) 
CCCOCC(=O)[C@@H](O)c1cccnc1

>  <HIPPO Compound ID>  (675) 
7845

>  <HIPPO Pose ID>  (675) 
471125

>  <ref_pdb>  (675) 
A0556a

$$$$
C8141-P348
     RDKit          3D

 14 14  0  0  0  0  0  0  0  0999 V2000
   11.9438   15.5703   22.1096 C   0  0  0  0  0  0  0  0  0  0  0  0
   10.8357   15.0322   22.9478 C   0  0  0  0  0  0  0  0  0  0  0  0
    9.8329   14.3005   22.4401 C   0  0  0  0  0  0  0  0  0  0  0  0
    8.7407   13.6397   23.2156 C   0  0  0  0  0  0  0  0  0  0  0  0
    7.7502   13.2567   22.5887 O   0  0  0  0  0  0  0  0  0  0  0  0
    8.9033   13.4264   24.7465 C   0  0  2  0  0  0  0  0  0  0  0  0
    8.4258   14.7069   25.4409 C   0  0  0  0  0  0  0  0  0  0  0  0
   10.2815   13.2367   25.1209 O   0  0  0  0  0  0  0  0  0  0  0  0
    8.1765   12.1748   25.2904 C   0  0  0  0  0  0  0  0  0  0  0  0
    6.7174   12.3531   25.7043 C   0  0  0  0  0  0  0  0  0  0  0  0
    6.1409   11.0774   26.3219 C   0  0  0  0  0  0  0  0  0  0  0  0
    6.3979    9.8645   25.5543 N   0  0  0  0  0  0  0  0  0  0  0  0
    7.7962    9.7189   25.1813 C   0  0  0  0  0  0  0  0  0  0  0  0
    8.3857   10.9156   24.4633 C   0  0  0  0  0  0  0  0  0  0  0  0
  1  2  1  0
  2  3  2  3
  3  4  1  0
  4  5  2  0
  4  6  1  0
  6  7  1  1
  6  8  1  0
  6  9  1  0
  9 10  1  0
 10 11  1  0
 11 12  1  0
 12 13  1  0
 13 14  1  0
 14  9  1  0
M  END
>  <inchikey>  (676) 
QKDZKLODHGSJHY-UHFFFAOYSA-N

>  <energy_score>  (676) 
-23.848056

>  <subsites>  (676) 
1 - Active Site

>  <alias>  (676) 
C8141-P348

>  <tags>  (676) 
openbind_a71ev2a_c1_scaffolds,BulkDock Fragalysis export,openbind_a71ev2a_c1_knitwork_impure,fragmenstein_placed

>  <distance_score>  (676) 
0.954202

>  <placement_batch>  (676) 
openbind_a71ev2a_c1_knitwork_impure

>  <name>  (676) 
C8141-P348

>  <ref_mols>  (676) 
A4388a,A0719a

>  <smiles>  (676) 
CC=CC(=O)[C@](C)(O)C1CCNCC1

>  <HIPPO Compound ID>  (676) 
1287

>  <HIPPO Pose ID>  (676) 
471137

>  <ref_pdb>  (676) 
A0556a

$$$$
C8176-P348
     RDKit          3D

 15 15  0  0  0  0  0  0  0  0999 V2000
    7.9114   14.8633   25.3505 C   0  0  0  0  0  0  0  0  0  0  0  0
    8.4518   13.5465   24.7771 C   0  0  2  0  0  0  0  0  0  0  0  0
    9.7274   13.3200   25.3743 O   0  0  0  0  0  0  0  0  0  0  0  0
    8.5447   13.6931   23.2296 C   0  0  0  0  0  0  0  0  0  0  0  0
    7.8015   13.0497   22.4763 O   0  0  0  0  0  0  0  0  0  0  0  0
    9.5214   14.7291   22.7004 C   0  0  0  0  0  0  0  0  0  0  0  0
   10.4327   15.1246   23.6391 F   0  0  0  0  0  0  0  0  0  0  0  0
   10.2294   14.2986   21.6312 F   0  0  0  0  0  0  0  0  0  0  0  0
    8.4489   16.2481   22.1473 Br  0  0  0  0  0  0  0  0  0  0  0  0
    7.4934   12.3515   25.1184 C   0  0  2  0  0  0  0  0  0  0  0  0
    6.8079   12.4258   26.4896 C   0  0  0  0  0  0  0  0  0  0  0  0
    5.9278   11.2195   26.7948 C   0  0  0  0  0  0  0  0  0  0  0  0
    6.3645    9.9296   26.1211 C   0  0  0  0  0  0  0  0  0  0  0  0
    7.7706    9.9136   25.7780 N   0  0  0  0  0  0  0  0  0  0  0  0
    8.1527   10.9817   24.8584 C   0  0  0  0  0  0  0  0  0  0  0  0
  2  1  1  1
  2  3  1  0
  2  4  1  0
  4  5  2  0
  4  6  1  0
  6  7  1  0
  6  8  1  0
  6  9  1  0
  2 10  1  0
 10 11  1  1
 11 12  1  0
 12 13  1  0
 13 14  1  0
 14 15  1  0
 15 10  1  0
M  END
>  <inchikey>  (677) 
JJHKJZKHZJQZCI-UHFFFAOYSA-N

>  <energy_score>  (677) 
-22.590345

>  <subsites>  (677) 
1 - Active Site

>  <alias>  (677) 
C8176-P348

>  <tags>  (677) 
openbind_a71ev2a_c1_scaffolds,BulkDock Fragalysis export,openbind_a71ev2a_c1_knitwork_impure,fragmenstein_placed

>  <distance_score>  (677) 
0.928415

>  <placement_batch>  (677) 
openbind_a71ev2a_c1_knitwork_impure

>  <name>  (677) 
C8176-P348

>  <ref_mols>  (677) 
A4388a,A0719a

>  <smiles>  (677) 
C[C@](O)(C(=O)C(F)(F)Br)[C@@H]1CCCNC1

>  <HIPPO Compound ID>  (677) 
9362

>  <HIPPO Pose ID>  (677) 
471165

>  <ref_pdb>  (677) 
A0556a

$$$$
C7529-P423
     RDKit          3D

 13 13  0  0  0  0  0  0  0  0999 V2000
    9.5842   12.8254   25.5019 O   0  0  0  0  0  0  0  0  0  0  0  0
    8.7949   12.8736   24.6324 C   0  0  0  0  0  0  0  0  0  0  0  0
    8.8678   13.5824   23.2263 N   0  0  0  0  0  0  0  0  0  0  0  0
    9.8384   14.4057   22.6867 N   0  0  0  0  0  0  0  0  0  0  0  0
   10.1705   15.5332   23.5597 C   0  0  0  0  0  0  0  0  0  0  0  0
   11.3799   16.2772   23.0064 C   0  0  0  0  0  0  0  0  0  0  0  0
   11.1813   16.7315   21.5650 C   0  0  0  0  0  0  0  0  0  0  0  0
   10.6807   15.5878   20.6937 C   0  0  0  0  0  0  0  0  0  0  0  0
    9.4859   14.8924   21.3411 C   0  0  0  0  0  0  0  0  0  0  0  0
    7.4508   12.1135   24.6282 C   0  0  0  0  0  0  0  0  0  0  0  0
    6.6467   12.5457   23.6175 F   0  0  0  0  0  0  0  0  0  0  0  0
    7.6269   10.7783   24.4232 F   0  0  0  0  0  0  0  0  0  0  0  0
    6.5712   12.3787   26.1287 Cl  0  0  0  0  0  0  0  0  0  0  0  0
  1  2  2  0
  2  3  1  0
  3  4  1  0
  4  5  1  0
  5  6  1  0
  6  7  1  0
  7  8  1  0
  8  9  1  0
  2 10  1  0
 10 11  1  0
 10 12  1  0
 10 13  1  0
  9  4  1  0
M  END
>  <inchikey>  (678) 
TXAALMFVFUTAOP-UHFFFAOYSA-N

>  <energy_score>  (678) 
-6.658289

>  <subsites>  (678) 
1 - Active Site

>  <alias>  (678) 
C7529-P423

>  <tags>  (678) 
openbind_a71ev2a_c1_scaffolds,BulkDock Fragalysis export,openbind_a71ev2a_c1_knitwork_impure,fragmenstein_placed

>  <distance_score>  (678) 
0.809687

>  <placement_batch>  (678) 
openbind_a71ev2a_c1_knitwork_impure

>  <name>  (678) 
C7529-P423

>  <ref_mols>  (678) 
A1445a,A4650a

>  <smiles>  (678) 
O=C(NN1CCCCC1)C(F)(F)Cl

>  <HIPPO Compound ID>  (678) 
10634

>  <HIPPO Pose ID>  (678) 
471177

>  <ref_pdb>  (678) 
A0556a

$$$$
C38598-P551
     RDKit          3D

 13 13  0  0  0  0  0  0  0  0999 V2000
    6.3161   10.7170   26.1231 C   0  0  0  0  0  0  0  0  0  0  0  0
    7.2743   11.3290   25.2756 O   0  0  0  0  0  0  0  0  0  0  0  0
    7.4645   12.7236   25.5291 C   0  0  2  0  0  0  0  0  0  0  0  0
    6.2171   13.5715   25.3668 C   0  0  0  0  0  0  0  0  0  0  0  0
    8.6205   13.1535   24.6226 C   0  0  0  0  0  0  0  0  0  0  0  0
    8.5776   14.2075   23.8638 N   0  0  0  0  0  0  0  0  0  0  0  0
    9.7417   14.5044   23.1565 N   0  0  0  0  0  0  0  0  0  0  0  0
    9.5139   15.2884   21.9397 C   0  0  0  0  0  0  0  0  0  0  0  0
   10.7180   15.3260   21.0129 C   0  0  0  0  0  0  0  0  0  0  0  0
   11.9370   15.7886   21.7880 C   0  0  0  0  0  0  0  0  0  0  0  0
   12.1810   14.8610   22.9616 C   0  0  0  0  0  0  0  0  0  0  0  0
   10.9654   14.6268   23.8406 C   0  0  0  0  0  0  0  0  0  0  0  0
   11.1130   14.4429   25.0530 O   0  0  0  0  0  0  0  0  0  0  0  0
  1  2  1  0
  2  3  1  0
  3  4  1  6
  3  5  1  0
  5  6  2  3
  6  7  1  0
  7  8  1  0
  8  9  1  0
  9 10  1  0
 10 11  1  0
 11 12  1  0
 12 13  2  0
 12  7  1  0
M  END
>  <inchikey>  (679) 
RWEBVRKWAUWERV-UHFFFAOYSA-N

>  <energy_score>  (679) 
-28.13718

>  <subsites>  (679) 
1 - Active Site

>  <alias>  (679) 
C38598-P551

>  <tags>  (679) 
openbind_a71ev2a_c1_scaffolds,BulkDock Fragalysis export,openbind_a71ev2a_c1_knitwork_impure,fragmenstein_placed

>  <distance_score>  (679) 
0.84002

>  <placement_batch>  (679) 
openbind_a71ev2a_c1_knitwork_impure

>  <name>  (679) 
C38598-P551

>  <ref_mols>  (679) 
A1775a,A5036b

>  <smiles>  (679) 
CO[C@H](C)C=NN1CCCCC1=O

>  <HIPPO Compound ID>  (679) 
3504

>  <HIPPO Pose ID>  (679) 
471281

>  <ref_pdb>  (679) 
A0556a

$$$$
C9146-P364
     RDKit          3D

 14 14  0  0  0  0  0  0  0  0999 V2000
   10.8220   15.7264   25.7821 C   0  0  0  0  0  0  0  0  0  0  0  0
   11.1567   14.6704   24.8850 O   0  0  0  0  0  0  0  0  0  0  0  0
    9.9786   14.3525   24.0927 N   0  0  0  0  0  0  0  0  0  0  0  0
    9.5771   12.9935   24.4477 C   0  0  0  0  0  0  0  0  0  0  0  0
    8.0838   12.9408   24.8743 C   0  0  0  0  0  0  0  0  0  0  0  0
    7.7377   11.4709   25.1478 C   0  0  0  0  0  0  0  0  0  0  0  0
    7.8120   13.7373   26.1630 C   0  0  0  0  0  0  0  0  0  0  0  0
    7.1748   13.5185   23.7750 C   0  0  0  0  0  0  0  0  0  0  0  0
   10.3065   14.4941   22.6543 C   0  0  2  0  0  0  0  0  0  0  0  0
   11.7521   14.2295   22.2338 C   0  0  0  0  0  0  0  0  0  0  0  0
   12.4242   15.5913   22.2813 C   0  0  0  0  0  0  0  0  0  0  0  0
   11.3697   16.5187   22.0542 N   0  0  0  0  0  0  0  0  0  0  0  0
   10.1329   15.9551   22.2584 C   0  0  0  0  0  0  0  0  0  0  0  0
    9.0856   16.5717   22.1718 O   0  0  0  0  0  0  0  0  0  0  0  0
  1  2  1  0
  2  3  1  0
  3  4  1  0
  4  5  1  0
  5  6  1  0
  5  7  1  0
  5  8  1  0
  9  3  1  1
  9 10  1  0
 10 11  1  0
 11 12  1  0
 12 13  1  0
 13 14  2  0
 13  9  1  0
M  END
>  <inchikey>  (680) 
SYHGTEQZJUIFDX-UHFFFAOYSA-N

>  <energy_score>  (680) 
-42.251507

>  <subsites>  (680) 
1 - Active Site

>  <alias>  (680) 
C9146-P364

>  <tags>  (680) 
openbind_a71ev2a_c1_scaffolds,BulkDock Fragalysis export,openbind_a71ev2a_c1_knitwork_impure,fragmenstein_placed

>  <distance_score>  (680) 
0.999105

>  <placement_batch>  (680) 
openbind_a71ev2a_c1_knitwork_impure

>  <name>  (680) 
C9146-P364

>  <ref_mols>  (680) 
A4445b,A0528a

>  <smiles>  (680) 
CON(CC(C)(C)C)[C@@H]1CCNC1=O

>  <HIPPO Compound ID>  (680) 
9126

>  <HIPPO Pose ID>  (680) 
471340

>  <ref_pdb>  (680) 
A0556a

$$$$
C9356-P204
     RDKit          3D

 15 15  0  0  0  0  0  0  0  0999 V2000
   12.2482   15.3279   22.6188 C   0  0  0  0  0  0  0  0  0  0  0  0
   11.4958   14.7342   23.8143 C   0  0  0  0  0  0  0  0  0  0  0  0
   12.1757   13.4249   24.1883 C   0  0  0  0  0  0  0  0  0  0  0  0
    9.9744   14.6245   23.5553 C   0  0  1  0  0  0  0  0  0  0  0  0
    9.6524   14.3856   22.1429 C   0  0  0  0  0  0  0  0  0  0  0  0
    9.4630   14.3629   21.0010 N   0  0  0  0  0  0  0  0  0  0  0  0
    9.3540   13.6935   24.5238 N   0  0  0  0  0  0  0  0  0  0  0  0
    7.7426   13.9759   24.8573 S   0  0  0  0  0  0  0  0  0  0  0  0
    7.0166   14.1745   23.6360 O   0  0  0  0  0  0  0  0  0  0  0  0
    7.7475   14.9325   25.9392 O   0  0  0  0  0  0  0  0  0  0  0  0
    7.4170   12.4735   25.5079 N   0  0  0  0  0  0  0  0  0  0  0  0
    6.0842   12.3256   26.1255 C   0  0  0  0  0  0  0  0  0  0  0  0
    6.0135   10.8380   26.4031 C   0  0  0  0  0  0  0  0  0  0  0  0
    6.8440   10.1834   25.3155 C   0  0  0  0  0  0  0  0  0  0  0  0
    7.5848   11.3085   24.6135 C   0  0  0  0  0  0  0  0  0  0  0  0
  1  2  1  0
  2  3  1  0
  2  4  1  0
  4  5  1  6
  5  6  3  0
  4  7  1  0
  7  8  1  0
  8  9  2  0
  8 10  2  0
  8 11  1  0
 11 12  1  0
 12 13  1  0
 13 14  1  0
 14 15  1  0
 15 11  1  0
M  END
>  <inchikey>  (681) 
RCYHJILZPFRWLW-UHFFFAOYSA-N

>  <energy_score>  (681) 
-61.890313

>  <subsites>  (681) 
1 - Active Site

>  <alias>  (681) 
C9356-P204

>  <tags>  (681) 
openbind_a71ev2a_c1_scaffolds,BulkDock Fragalysis export,openbind_a71ev2a_c1_knitwork_impure,fragmenstein_placed

>  <distance_score>  (681) 
0.913631

>  <placement_batch>  (681) 
openbind_a71ev2a_c1_knitwork_impure

>  <name>  (681) 
C9356-P204

>  <ref_mols>  (681) 
A3685a,A0719a

>  <smiles>  (681) 
CC(C)[C@@H](C#N)NS(=O)(=O)N1CCCC1

>  <HIPPO Compound ID>  (681) 
3532

>  <HIPPO Pose ID>  (681) 
471747

>  <ref_pdb>  (681) 
A0556a

$$$$
C9372-P204
     RDKit          3D

 16 16  0  0  0  0  0  0  0  0999 V2000
    6.8923   14.4546   23.9787 O   0  0  0  0  0  0  0  0  0  0  0  0
    7.5995   14.0532   25.1671 S   0  0  0  0  0  0  0  0  0  0  0  0
    7.2842   14.5810   26.4793 O   0  0  0  0  0  0  0  0  0  0  0  0
    9.2381   14.4113   24.9733 N   0  0  0  0  0  0  0  0  0  0  0  0
    9.7912   14.3181   23.6267 C   0  0  0  0  0  0  0  0  0  0  0  0
   11.2573   14.7345   23.6383 C   0  0  0  0  0  0  0  0  0  0  0  0
   11.9302   14.5458   22.2789 C   0  0  0  0  0  0  0  0  0  0  0  0
   11.1049   15.0208   21.1008 C   0  0  0  0  0  0  0  0  0  0  0  0
   11.7693   14.8430   19.9462 F   0  0  0  0  0  0  0  0  0  0  0  0
    9.9391   14.3430   21.0259 F   0  0  0  0  0  0  0  0  0  0  0  0
   10.8103   16.3293   21.2228 F   0  0  0  0  0  0  0  0  0  0  0  0
    7.6328   12.2998   25.3248 C   0  0  2  0  0  0  0  0  0  0  0  0
    7.8144   11.4540   24.1062 C   0  0  0  0  0  0  0  0  0  0  0  0
    7.4363   10.0902   24.6524 C   0  0  0  0  0  0  0  0  0  0  0  0
    6.3295   10.3331   25.5758 N   0  0  0  0  0  0  0  0  0  0  0  0
    6.3771   11.7475   25.9701 C   0  0  0  0  0  0  0  0  0  0  0  0
  1  2  2  0
  2  3  2  0
  2  4  1  0
  4  5  1  0
  5  6  1  0
  6  7  1  0
  7  8  1  0
  8  9  1  0
  8 10  1  0
  8 11  1  0
 12  2  1  6
 12 13  1  0
 13 14  1  0
 14 15  1  0
 15 16  1  0
 16 12  1  0
M  END
>  <inchikey>  (682) 
GYZAOFILUIIAKQ-UHFFFAOYSA-N

>  <energy_score>  (682) 
-48.824792

>  <subsites>  (682) 
1 - Active Site

>  <alias>  (682) 
C9372-P204

>  <tags>  (682) 
openbind_a71ev2a_c1_scaffolds,BulkDock Fragalysis export,openbind_a71ev2a_c1_knitwork_impure,fragmenstein_placed

>  <distance_score>  (682) 
0.931678

>  <placement_batch>  (682) 
openbind_a71ev2a_c1_knitwork_impure

>  <name>  (682) 
C9372-P204

>  <ref_mols>  (682) 
A3685a,A0719a

>  <smiles>  (682) 
O=S(=O)(NCCCC(F)(F)F)[C@@H]1CCNC1

>  <HIPPO Compound ID>  (682) 
20145

>  <HIPPO Pose ID>  (682) 
471753

>  <ref_pdb>  (682) 
A0556a

$$$$
C9376-P204
     RDKit          3D

 10 10  0  0  0  0  0  0  0  0999 V2000
    9.9173   14.4779   25.1216 C   0  0  0  0  0  0  0  0  0  0  0  0
    8.9927   14.3603   23.9214 C   0  0  1  0  0  0  0  0  0  0  0  0
    9.6495   13.6808   22.8735 O   0  0  0  0  0  0  0  0  0  0  0  0
    7.6246   13.7764   24.3046 C   0  0  0  0  0  0  0  0  0  0  0  0
    6.5844   14.3778   24.0298 O   0  0  0  0  0  0  0  0  0  0  0  0
    7.6361   12.4487   25.0520 C   0  0  2  0  0  0  0  0  0  0  0  0
    8.0385   11.2752   24.1977 C   0  0  0  0  0  0  0  0  0  0  0  0
    7.3545   10.0886   24.8384 C   0  0  0  0  0  0  0  0  0  0  0  0
    6.3968   10.6531   25.8674 C   0  0  0  0  0  0  0  0  0  0  0  0
    6.3193   12.0911   25.6231 N   0  0  0  0  0  0  0  0  0  0  0  0
  2  1  1  1
  2  3  1  0
  2  4  1  0
  4  5  2  0
  6  4  1  6
  6  7  1  0
  7  8  1  0
  8  9  1  0
  9 10  1  0
 10  6  1  0
M  END
>  <inchikey>  (683) 
FWKKRHSZSZHMCS-UHFFFAOYSA-N

>  <energy_score>  (683) 
-12.705145

>  <subsites>  (683) 
1 - Active Site

>  <alias>  (683) 
C9376-P204

>  <tags>  (683) 
openbind_a71ev2a_c1_scaffolds,BulkDock Fragalysis export,openbind_a71ev2a_c1_knitwork_impure,fragmenstein_placed

>  <distance_score>  (683) 
0.993438

>  <placement_batch>  (683) 
openbind_a71ev2a_c1_knitwork_impure

>  <name>  (683) 
C9376-P204

>  <ref_mols>  (683) 
A3685a,A0719a

>  <smiles>  (683) 
C[C@@H](O)C(=O)[C@@H]1CCCN1

>  <HIPPO Compound ID>  (683) 
9376

>  <HIPPO Pose ID>  (683) 
471756

>  <ref_pdb>  (683) 
A0556a

$$$$
C9380-P204
     RDKit          3D

 13 13  0  0  0  0  0  0  0  0999 V2000
    8.0414    9.4883   24.1833 C   0  0  0  0  0  0  0  0  0  0  0  0
    8.1361   10.9828   23.9648 C   0  0  0  0  0  0  0  0  0  0  0  0
    9.4388   11.2502   23.2392 C   0  0  0  0  0  0  0  0  0  0  0  0
    8.0702   11.6441   25.2299 O   0  0  0  0  0  0  0  0  0  0  0  0
    7.2082   12.7984   25.2513 C   0  0  0  0  0  0  0  0  0  0  0  0
    7.7125   14.0213   24.4481 C   0  0  2  0  0  0  0  0  0  0  0  0
    7.2676   13.8746   23.0994 O   0  0  0  0  0  0  0  0  0  0  0  0
    9.2482   14.2024   24.6135 C   0  0  0  0  0  0  0  0  0  0  0  0
   10.0651   14.9601   23.6568 N   0  0  0  0  0  0  0  0  0  0  0  0
   11.4641   14.5081   23.6681 C   0  0  0  0  0  0  0  0  0  0  0  0
   12.0381   14.8571   22.3039 C   0  0  0  0  0  0  0  0  0  0  0  0
   10.9006   15.5007   21.5447 C   0  0  0  0  0  0  0  0  0  0  0  0
    9.6642   14.9838   22.2508 C   0  0  0  0  0  0  0  0  0  0  0  0
  1  2  1  0
  2  3  1  0
  2  4  1  0
  4  5  1  0
  5  6  1  0
  6  7  1  6
  6  8  1  0
  8  9  1  0
  9 10  1  0
 10 11  1  0
 11 12  1  0
 12 13  1  0
 13  9  1  0
M  END
>  <inchikey>  (684) 
DQQDJWRXBCMXIH-UHFFFAOYSA-N

>  <energy_score>  (684) 
-13.354201

>  <subsites>  (684) 
1 - Active Site

>  <alias>  (684) 
C9380-P204

>  <tags>  (684) 
openbind_a71ev2a_c1_scaffolds,BulkDock Fragalysis export,openbind_a71ev2a_c1_knitwork_impure,fragmenstein_placed

>  <distance_score>  (684) 
0.912185

>  <placement_batch>  (684) 
openbind_a71ev2a_c1_knitwork_impure

>  <name>  (684) 
C9380-P204

>  <ref_mols>  (684) 
A3685a,A0719a

>  <smiles>  (684) 
CC(C)OC[C@H](O)CN1CCCC1

>  <HIPPO Compound ID>  (684) 
6132

>  <HIPPO Pose ID>  (684) 
471760

>  <ref_pdb>  (684) 
A0556a

$$$$
C9382-P204
     RDKit          3D

 15 15  0  0  0  0  0  0  0  0999 V2000
   12.4488   13.9879   23.5309 C   0  0  0  0  0  0  0  0  0  0  0  0
   11.2526   13.9345   24.4533 C   0  0  0  0  0  0  0  0  0  0  0  0
   11.4926   14.9511   25.5852 C   0  0  0  0  0  0  0  0  0  0  0  0
    9.8746   14.0519   23.7334 C   0  0  2  0  0  0  0  0  0  0  0  0
    9.7769   15.2097   22.7354 C   0  0  0  0  0  0  0  0  0  0  0  0
   10.5473   14.9901   20.8069 I   0  0  0  0  0  0  0  0  0  0  0  0
    8.9228   14.2819   24.8470 N   0  0  0  0  0  0  0  0  0  0  0  0
    7.2979   14.0012   24.7627 S   0  0  0  0  0  0  0  0  0  0  0  0
    6.8611   14.0362   23.3959 O   0  0  0  0  0  0  0  0  0  0  0  0
    6.7401   14.8093   25.8205 O   0  0  0  0  0  0  0  0  0  0  0  0
    7.3483   12.4280   25.3463 N   0  0  0  0  0  0  0  0  0  0  0  0
    6.0902   11.9677   25.9746 C   0  0  0  0  0  0  0  0  0  0  0  0
    6.2750   10.4717   26.0939 C   0  0  0  0  0  0  0  0  0  0  0  0
    7.2095   10.0825   24.9706 C   0  0  0  0  0  0  0  0  0  0  0  0
    7.8129   11.3667   24.4379 C   0  0  0  0  0  0  0  0  0  0  0  0
  1  2  1  0
  2  3  1  0
  2  4  1  0
  4  5  1  6
  5  6  1  0
  4  7  1  0
  7  8  1  0
  8  9  2  0
  8 10  2  0
  8 11  1  0
 11 12  1  0
 12 13  1  0
 13 14  1  0
 14 15  1  0
 15 11  1  0
M  END
>  <inchikey>  (685) 
WQDYLJGBYWAYGW-UHFFFAOYSA-N

>  <energy_score>  (685) 
-56.437841

>  <subsites>  (685) 
1 - Active Site

>  <alias>  (685) 
C9382-P204

>  <tags>  (685) 
openbind_a71ev2a_c1_scaffolds,BulkDock Fragalysis export,openbind_a71ev2a_c1_knitwork_impure,fragmenstein_placed

>  <distance_score>  (685) 
0.942977

>  <placement_batch>  (685) 
openbind_a71ev2a_c1_knitwork_impure

>  <name>  (685) 
C9382-P204

>  <ref_mols>  (685) 
A3685a,A0719a

>  <smiles>  (685) 
CC(C)[C@H](CI)NS(=O)(=O)N1CCCC1

>  <HIPPO Compound ID>  (685) 
13629

>  <HIPPO Pose ID>  (685) 
471762

>  <ref_pdb>  (685) 
A0556a

$$$$
C9385-P204
     RDKit          3D

 12 12  0  0  0  0  0  0  0  0999 V2000
   11.3324   14.5345   23.4659 C   0  0  0  0  0  0  0  0  0  0  0  0
    9.8490   14.3161   23.4617 C   0  0  0  0  0  0  0  0  0  0  0  0
    9.1774   14.1084   22.4577 O   0  0  0  0  0  0  0  0  0  0  0  0
    9.1555   14.3495   24.8137 C   0  0  0  0  0  0  0  0  0  0  0  0
    9.8338   14.4374   25.8321 O   0  0  0  0  0  0  0  0  0  0  0  0
    7.6345   14.2461   24.8125 C   0  0  1  0  0  0  0  0  0  0  0  0
    7.0115   15.0135   23.7838 O   0  0  0  0  0  0  0  0  0  0  0  0
    7.0663   12.8126   24.8230 C   0  0  1  0  0  0  0  0  0  0  0  0
    7.9738   11.6954   24.3365 C   0  0  0  0  0  0  0  0  0  0  0  0
    7.3774   10.4292   24.9298 C   0  0  0  0  0  0  0  0  0  0  0  0
    6.3921   10.8956   25.9838 C   0  0  0  0  0  0  0  0  0  0  0  0
    6.6571   12.3224   26.1608 N   0  0  0  0  0  0  0  0  0  0  0  0
  1  2  1  0
  2  3  2  0
  2  4  1  0
  4  5  2  0
  4  6  1  0
  6  7  1  6
  6  8  1  0
  8  9  1  1
  9 10  1  0
 10 11  1  0
 11 12  1  0
 12  8  1  0
M  END
>  <inchikey>  (686) 
JPZZIQFEUYXBCW-UHFFFAOYSA-N

>  <energy_score>  (686) 
-39.019377

>  <subsites>  (686) 
1 - Active Site

>  <alias>  (686) 
C9385-P204

>  <tags>  (686) 
openbind_a71ev2a_c1_scaffolds,BulkDock Fragalysis export,openbind_a71ev2a_c1_knitwork_impure,fragmenstein_placed

>  <distance_score>  (686) 
0.857462

>  <placement_batch>  (686) 
openbind_a71ev2a_c1_knitwork_impure

>  <name>  (686) 
C9385-P204

>  <ref_mols>  (686) 
A3685a,A0719a

>  <smiles>  (686) 
CC(=O)C(=O)[C@@H](O)[C@H]1CCCN1

>  <HIPPO Compound ID>  (686) 
7092

>  <HIPPO Pose ID>  (686) 
471763

>  <ref_pdb>  (686) 
A0556a

$$$$
C9386-P204
     RDKit          3D

 14 14  0  0  0  0  0  0  0  0999 V2000
   12.2376   15.0836   22.7777 C   0  0  0  0  0  0  0  0  0  0  0  0
   11.3726   14.4715   23.5971 C   0  0  0  0  0  0  0  0  0  0  0  0
    9.9564   14.0510   23.2391 C   0  0  0  0  0  0  0  0  0  0  0  0
    9.4123   14.7667   21.9976 C   0  0  0  0  0  0  0  0  0  0  0  0
   10.0254   12.5582   22.9992 C   0  0  0  0  0  0  0  0  0  0  0  0
    9.1618   14.3378   24.4440 N   0  0  0  0  0  0  0  0  0  0  0  0
    7.5424   13.9691   24.6427 S   0  0  0  0  0  0  0  0  0  0  0  0
    6.8713   13.9560   23.3694 O   0  0  0  0  0  0  0  0  0  0  0  0
    7.1425   14.8783   25.7011 O   0  0  0  0  0  0  0  0  0  0  0  0
    7.5497   12.3557   25.3658 C   0  0  2  0  0  0  0  0  0  0  0  0
    7.5337   11.1290   24.4948 C   0  0  0  0  0  0  0  0  0  0  0  0
    6.8238   10.0704   25.3207 C   0  0  0  0  0  0  0  0  0  0  0  0
    6.3793   10.7223   26.5505 N   0  0  0  0  0  0  0  0  0  0  0  0
    6.3237   12.1539   26.2357 C   0  0  0  0  0  0  0  0  0  0  0  0
  1  2  2  0
  2  3  1  0
  3  4  1  0
  3  5  1  0
  3  6  1  0
  6  7  1  0
  7  8  2  0
  7  9  2  0
 10  7  1  6
 10 11  1  0
 11 12  1  0
 12 13  1  0
 13 14  1  0
 14 10  1  0
M  END
>  <inchikey>  (687) 
RTPIGKAAQCUSFW-UHFFFAOYSA-N

>  <energy_score>  (687) 
-43.748473

>  <subsites>  (687) 
1 - Active Site

>  <alias>  (687) 
C9386-P204

>  <tags>  (687) 
openbind_a71ev2a_c1_scaffolds,BulkDock Fragalysis export,openbind_a71ev2a_c1_knitwork_impure,fragmenstein_placed

>  <distance_score>  (687) 
0.996557

>  <placement_batch>  (687) 
openbind_a71ev2a_c1_knitwork_impure

>  <name>  (687) 
C9386-P204

>  <ref_mols>  (687) 
A3685a,A0719a

>  <smiles>  (687) 
C=CC(C)(C)NS(=O)(=O)[C@@H]1CCNC1

>  <HIPPO Compound ID>  (687) 
7116

>  <HIPPO Pose ID>  (687) 
471764

>  <ref_pdb>  (687) 
A0556a

$$$$
C9393-P204
     RDKit          3D

 15 15  0  0  0  0  0  0  0  0999 V2000
   11.3636   14.9864   18.4599 C   0  0  0  0  0  0  0  0  0  0  0  0
   10.8035   15.2892   19.8310 C   0  0  0  0  0  0  0  0  0  0  0  0
   11.7773   14.8520   20.9162 C   0  0  0  0  0  0  0  0  0  0  0  0
   11.2528   15.0830   22.3232 C   0  0  2  0  0  0  0  0  0  0  0  0
   12.4495   14.1426   23.5797 Br  0  0  0  0  0  0  0  0  0  0  0  0
    9.8418   14.5615   22.5872 C   0  0  0  0  0  0  0  0  0  0  0  0
    9.6098   14.5202   24.0365 N   0  0  0  0  0  0  0  0  0  0  0  0
    8.2060   13.9614   24.6655 S   0  0  0  0  0  0  0  0  0  0  0  0
    7.1603   14.1487   23.6949 O   0  0  0  0  0  0  0  0  0  0  0  0
    8.1449   14.4809   26.0101 O   0  0  0  0  0  0  0  0  0  0  0  0
    8.4939   12.3063   24.8086 N   0  0  0  0  0  0  0  0  0  0  0  0
    7.3075   11.5793   25.3487 C   0  0  0  0  0  0  0  0  0  0  0  0
    7.4433   10.1426   24.8750 C   0  0  0  0  0  0  0  0  0  0  0  0
    8.6262   10.1056   23.9326 C   0  0  0  0  0  0  0  0  0  0  0  0
    8.9002   11.5584   23.6042 C   0  0  0  0  0  0  0  0  0  0  0  0
  1  2  1  0
  2  3  1  0
  3  4  1  0
  4  5  1  1
  4  6  1  0
  6  7  1  0
  7  8  1  0
  8  9  2  0
  8 10  2  0
  8 11  1  0
 11 12  1  0
 12 13  1  0
 13 14  1  0
 14 15  1  0
 15 11  1  0
M  END
>  <inchikey>  (688) 
JQBYUAVAPLZUQX-UHFFFAOYSA-N

>  <energy_score>  (688) 
-22.394635

>  <subsites>  (688) 
1 - Active Site

>  <alias>  (688) 
C9393-P204

>  <tags>  (688) 
openbind_a71ev2a_c1_scaffolds,BulkDock Fragalysis export,openbind_a71ev2a_c1_knitwork_impure,fragmenstein_placed

>  <distance_score>  (688) 
0.827109

>  <placement_batch>  (688) 
openbind_a71ev2a_c1_knitwork_impure

>  <name>  (688) 
C9393-P204

>  <ref_mols>  (688) 
A3685a,A0719a

>  <smiles>  (688) 
CCC[C@H](Br)CNS(=O)(=O)N1CCCC1

>  <HIPPO Compound ID>  (688) 
20058

>  <HIPPO Pose ID>  (688) 
471767

>  <ref_pdb>  (688) 
A0556a

$$$$
C9394-P204
     RDKit          3D

 13 13  0  0  0  0  0  0  0  0999 V2000
    5.5876   10.9915   27.2291 C   0  0  0  0  0  0  0  0  0  0  0  0
    6.0009   10.2377   26.2006 C   0  0  0  0  0  0  0  0  0  0  0  0
    7.0980   10.5201   25.2171 C   0  0  0  0  0  0  0  0  0  0  0  0
    7.7935   11.7189   25.5126 O   0  0  0  0  0  0  0  0  0  0  0  0
    7.0777   12.9041   25.1637 C   0  0  0  0  0  0  0  0  0  0  0  0
    7.7610   13.6444   24.0241 C   0  0  1  0  0  0  0  0  0  0  0  0
    7.1325   14.9172   23.8626 O   0  0  0  0  0  0  0  0  0  0  0  0
    9.2627   13.8215   24.3153 C   0  0  0  0  0  0  0  0  0  0  0  0
    9.9297   14.7038   23.3514 N   0  0  0  0  0  0  0  0  0  0  0  0
   11.3696   14.8044   23.6232 C   0  0  0  0  0  0  0  0  0  0  0  0
   12.0333   14.9716   22.2641 C   0  0  0  0  0  0  0  0  0  0  0  0
   10.8904   15.0801   21.2799 C   0  0  0  0  0  0  0  0  0  0  0  0
    9.8180   14.2578   21.9581 C   0  0  0  0  0  0  0  0  0  0  0  0
  1  2  2  0
  2  3  1  0
  3  4  1  0
  4  5  1  0
  5  6  1  0
  6  7  1  1
  6  8  1  0
  8  9  1  0
  9 10  1  0
 10 11  1  0
 11 12  1  0
 12 13  1  0
 13  9  1  0
M  END
>  <inchikey>  (689) 
SMFBGIJWOIHSTQ-UHFFFAOYSA-N

>  <energy_score>  (689) 
-17.067713

>  <subsites>  (689) 
1 - Active Site

>  <alias>  (689) 
C9394-P204

>  <tags>  (689) 
openbind_a71ev2a_c1_scaffolds,BulkDock Fragalysis export,openbind_a71ev2a_c1_knitwork_impure,fragmenstein_placed

>  <distance_score>  (689) 
0.790572

>  <placement_batch>  (689) 
openbind_a71ev2a_c1_knitwork_impure

>  <name>  (689) 
C9394-P204

>  <ref_mols>  (689) 
A3685a,A0719a

>  <smiles>  (689) 
C=CCOC[C@@H](O)CN1CCCC1

>  <HIPPO Compound ID>  (689) 
6083

>  <HIPPO Pose ID>  (689) 
471768

>  <ref_pdb>  (689) 
A0556a

$$$$
C1585-P198
     RDKit          3D

 16 16  0  0  0  0  0  0  0  0999 V2000
   11.1964   15.7679   23.6447 O   0  0  0  0  0  0  0  0  0  0  0  0
   10.8999   14.9348   22.8865 C   0  0  0  0  0  0  0  0  0  0  0  0
   11.4055   14.9222   21.4497 C   0  0  0  0  0  0  0  0  0  0  0  0
   10.2619   15.3290   20.5472 C   0  0  0  0  0  0  0  0  0  0  0  0
    9.8065   16.5570   20.9216 F   0  0  0  0  0  0  0  0  0  0  0  0
    9.2059   14.4811   20.7457 F   0  0  0  0  0  0  0  0  0  0  0  0
   10.5827   15.3579   19.0612 C   0  0  0  0  0  0  0  0  0  0  0  0
   11.3529   16.4136   18.7571 F   0  0  0  0  0  0  0  0  0  0  0  0
   11.2633   14.2576   18.6622 F   0  0  0  0  0  0  0  0  0  0  0  0
    9.9193   13.7520   23.0335 N   0  0  0  0  0  0  0  0  0  0  0  0
    9.0365   13.4065   24.1013 C   0  0  0  0  0  0  0  0  0  0  0  0
    8.7014   11.9671   24.0527 C   0  0  0  0  0  0  0  0  0  0  0  0
    7.7089   11.3044   24.7371 C   0  0  0  0  0  0  0  0  0  0  0  0
    7.8303    9.9731   24.4829 O   0  0  0  0  0  0  0  0  0  0  0  0
    8.8887    9.8935   23.6261 C   0  0  0  0  0  0  0  0  0  0  0  0
    9.4255   11.0530   23.3129 N   0  0  0  0  0  0  0  0  0  0  0  0
  1  2  2  0
  2  3  1  0
  3  4  1  0
  4  5  1  0
  4  6  1  0
  4  7  1  0
  7  8  1  0
  7  9  1  0
  2 10  1  0
 10 11  1  0
 11 12  1  0
 12 13  2  0
 13 14  1  0
 14 15  1  0
 15 16  2  0
 16 12  1  0
M  END
>  <inchikey>  (690) 
IBVLOOXRGBJCHW-UHFFFAOYSA-N

>  <energy_score>  (690) 
-1.154096

>  <subsites>  (690) 
1 - Active Site

>  <alias>  (690) 
C1585-P198

>  <tags>  (690) 
openbind_a71ev2a_c1_scaffolds,BulkDock Fragalysis export,openbind_a71ev2a_c1_knitwork_impure,fragmenstein_placed

>  <distance_score>  (690) 
0.987905

>  <placement_batch>  (690) 
openbind_a71ev2a_c1_knitwork_impure

>  <name>  (690) 
C1585-P198

>  <ref_mols>  (690) 
A2846a,A3618a

>  <smiles>  (690) 
O=C(CC(F)(F)C(F)F)NCc1cocn1

>  <HIPPO Compound ID>  (690) 
27918

>  <HIPPO Pose ID>  (690) 
471789

>  <ref_pdb>  (690) 
A0556a

$$$$
C1625-P136
     RDKit          3D

 14 14  0  0  0  0  0  0  0  0999 V2000
   10.1172   17.0629   19.8217 C   0  0  0  0  0  0  0  0  0  0  0  0
   10.2054   15.5551   19.7030 C   0  0  1  0  0  0  0  0  0  0  0  0
   11.5159   15.0481   18.6156 Cl  0  0  0  0  0  0  0  0  0  0  0  0
   10.3214   14.9106   21.0850 C   0  0  0  0  0  0  0  0  0  0  0  0
   11.7390   14.8588   21.6773 C   0  0  0  0  0  0  0  0  0  0  0  0
   11.7571   14.3916   23.1268 C   0  0  0  0  0  0  0  0  0  0  0  0
   10.8350   13.3178   23.3651 N   0  0  0  0  0  0  0  0  0  0  0  0
    9.7178   13.1754   24.4082 C   0  0  0  0  0  0  0  0  0  0  0  0
    9.3154   13.9368   25.1917 O   0  0  0  0  0  0  0  0  0  0  0  0
    9.1350   11.8532   24.3064 C   0  0  0  0  0  0  0  0  0  0  0  0
    8.0439   11.2847   24.9224 C   0  0  0  0  0  0  0  0  0  0  0  0
    7.9426    9.9610   24.5796 N   0  0  0  0  0  0  0  0  0  0  0  0
    8.9469    9.7795   23.7496 C   0  0  0  0  0  0  0  0  0  0  0  0
    9.7093   10.8853   23.5174 O   0  0  0  0  0  0  0  0  0  0  0  0
  2  1  1  1
  2  3  1  0
  2  4  1  0
  4  5  1  0
  5  6  1  0
  6  7  1  0
  7  8  1  0
  8  9  2  0
  8 10  1  0
 10 11  2  0
 11 12  1  0
 12 13  2  0
 13 14  1  0
 14 10  1  0
M  END
>  <inchikey>  (691) 
OJPVDAKSEAPTQE-UHFFFAOYSA-N

>  <energy_score>  (691) 
-4.877833

>  <subsites>  (691) 
1 - Active Site

>  <alias>  (691) 
C1625-P136

>  <tags>  (691) 
openbind_a71ev2a_c1_scaffolds,BulkDock Fragalysis export,openbind_a71ev2a_c1_knitwork_impure,fragmenstein_placed

>  <distance_score>  (691) 
0.906476

>  <placement_batch>  (691) 
openbind_a71ev2a_c1_knitwork_impure

>  <name>  (691) 
C1625-P136

>  <ref_mols>  (691) 
A2846a,A3618a

>  <smiles>  (691) 
C[C@@H](Cl)CCCNC(=O)c1cnco1

>  <HIPPO Compound ID>  (691) 
3827

>  <HIPPO Pose ID>  (691) 
471803

>  <ref_pdb>  (691) 
A0556a

$$$$
C9549-P364
     RDKit          3D

 10 10  0  0  0  0  0  0  0  0999 V2000
    9.4291   10.0727   23.0042 O   0  0  0  0  0  0  0  0  0  0  0  0
    9.8960   10.9478   23.7202 C   0  0  0  0  0  0  0  0  0  0  0  0
    9.5939   12.4089   23.5538 C   0  0  0  0  0  0  0  0  0  0  0  0
    9.4034   13.1085   24.8928 C   0  0  0  0  0  0  0  0  0  0  0  0
    8.1199   12.8207   25.6415 C   0  0  0  0  0  0  0  0  0  0  0  0
    7.4625   11.5870   25.6256 C   0  0  0  0  0  0  0  0  0  0  0  0
    6.3192   11.4174   26.3990 C   0  0  0  0  0  0  0  0  0  0  0  0
    5.8039   12.3709   27.1992 N   0  0  0  0  0  0  0  0  0  0  0  0
    6.4337   13.5617   27.1935 C   0  0  0  0  0  0  0  0  0  0  0  0
    7.5774   13.8259   26.4527 C   0  0  0  0  0  0  0  0  0  0  0  0
  1  2  2  0
  2  3  1  0
  3  4  1  0
  4  5  1  0
  5  6  2  0
  6  7  1  0
  7  8  2  0
  8  9  1  0
  9 10  2  0
 10  5  1  0
M  END
>  <inchikey>  (692) 
VLOGXOWERDMVRP-UHFFFAOYSA-N

>  <energy_score>  (692) 
-7.876208

>  <subsites>  (692) 
1 - Active Site

>  <alias>  (692) 
C9549-P364

>  <tags>  (692) 
openbind_a71ev2a_c1_scaffolds,BulkDock Fragalysis export,openbind_a71ev2a_c1_knitwork_impure,fragmenstein_placed

>  <distance_score>  (692) 
0.938057

>  <placement_batch>  (692) 
openbind_a71ev2a_c1_knitwork_impure

>  <name>  (692) 
C9549-P364

>  <ref_mols>  (692) 
A4445b,A2629a

>  <smiles>  (692) 
O=CCCc1ccncc1

>  <HIPPO Compound ID>  (692) 
4812

>  <HIPPO Pose ID>  (692) 
471840

>  <ref_pdb>  (692) 
A0556a

$$$$
C7674-P618
     RDKit          3D

 13 14  0  0  0  0  0  0  0  0999 V2000
    5.7630   15.4915   22.3152 N   0  0  0  0  0  0  0  0  0  0  0  0
    7.2016   14.6674   22.5349 S   0  0  0  0  0  0  0  0  0  0  0  0
    8.2292   15.4815   21.9374 O   0  0  0  0  0  0  0  0  0  0  0  0
    6.9654   13.2977   22.1353 O   0  0  0  0  0  0  0  0  0  0  0  0
    7.3865   14.7170   24.3126 C   0  0  0  0  0  0  0  0  0  0  0  0
    8.8194   14.4470   24.7793 C   0  0  0  0  0  0  0  0  0  0  0  0
    9.5804   13.2721   24.1313 C   0  0  0  0  0  0  0  0  0  0  0  0
    9.3867   11.9202   24.6654 N   0  0  0  0  0  0  0  0  0  0  0  0
    8.0276   11.6365   25.1350 C   0  0  0  0  0  0  0  0  0  0  0  0
    8.0231   10.1200   25.2173 C   0  0  0  0  0  0  0  0  0  0  0  0
    8.7922    9.6827   24.0192 C   0  0  2  0  0  0  0  0  0  0  0  0
   10.2533    9.4944   23.9162 C   0  0  0  0  0  0  0  0  0  0  0  0
    9.6791   10.8528   23.6542 C   0  0  2  0  0  0  0  0  0  0  0  0
  1  2  1  0
  2  3  2  0
  2  4  2  0
  2  5  1  0
  5  6  1  0
  6  7  1  0
  7  8  1  0
  8  9  1  0
  9 10  1  0
 11 10  1  1
 11 12  1  0
 13 12  1  1
 13  8  1  0
 13 11  1  0
M  END
>  <inchikey>  (693) 
NILYFVLXUNTUTG-UHFFFAOYSA-N

>  <energy_score>  (693) 
-24.901521

>  <subsites>  (693) 
1 - Active Site

>  <alias>  (693) 
C7674-P618

>  <tags>  (693) 
openbind_a71ev2a_c1_scaffolds,BulkDock Fragalysis export,openbind_a71ev2a_c1_knitwork_impure,fragmenstein_placed

>  <distance_score>  (693) 
0.732902

>  <placement_batch>  (693) 
openbind_a71ev2a_c1_knitwork_impure

>  <name>  (693) 
C7674-P618

>  <ref_mols>  (693) 
A5425b,A0719a

>  <smiles>  (693) 
NS(=O)(=O)CCCN1CC[C@@H]2C[C@@H]21

>  <HIPPO Compound ID>  (693) 
2628

>  <HIPPO Pose ID>  (693) 
472059

>  <ref_pdb>  (693) 
A0556a

$$$$
C678-P71
     RDKit          3D

 22 25  0  0  0  0  0  0  0  0999 V2000
   31.3726   22.2009   17.5492 O   0  0  0  0  0  0  0  0  0  0  0  0
   30.3503   22.7805   17.1831 C   0  0  0  0  0  0  0  0  0  0  0  0
   29.1435   22.6409   17.8033 O   0  0  0  0  0  0  0  0  0  0  0  0
   29.1170   21.6791   18.8653 C   0  0  0  0  0  0  0  0  0  0  0  0
   27.7060   21.5376   19.4071 C   0  0  0  0  0  0  0  0  0  0  0  0
   27.5284   21.0169   20.6991 C   0  0  0  0  0  0  0  0  0  0  0  0
   26.2513   20.8079   21.2407 C   0  0  0  0  0  0  0  0  0  0  0  0
   25.1277   21.1195   20.4591 C   0  0  0  0  0  0  0  0  0  0  0  0
   23.7256   21.0388   20.6076 C   0  0  0  0  0  0  0  0  0  0  0  0
   23.0614   21.4347   19.5175 N   0  0  0  0  0  0  0  0  0  0  0  0
   24.0513   21.7948   18.6696 N   0  0  0  0  0  0  0  0  0  0  0  0
   25.3129   21.6319   19.1829 C   0  0  0  0  0  0  0  0  0  0  0  0
   26.5787   21.8503   18.6236 C   0  0  0  0  0  0  0  0  0  0  0  0
   30.2640   23.7568   15.9733 C   0  0  0  0  0  0  0  0  0  0  0  0
   29.6663   23.0824   14.7928 N   0  0  0  0  0  0  0  0  0  0  0  0
   30.2164   21.9827   14.1910 C   0  0  0  0  0  0  0  0  0  0  0  0
   29.3592   21.6326   13.1753 C   0  0  0  0  0  0  0  0  0  0  0  0
   28.3273   22.5839   13.2379 C   0  0  0  0  0  0  0  0  0  0  0  0
   28.5090   23.4709   14.2191 N   0  0  0  0  0  0  0  0  0  0  0  0
   29.6723   25.1819   16.2440 C   0  0  0  0  0  0  0  0  0  0  0  0
   31.1164   25.6667   16.4740 C   0  0  0  0  0  0  0  0  0  0  0  0
   31.5776   24.5083   15.5702 C   0  0  0  0  0  0  0  0  0  0  0  0
  1  2  2  0
  2  3  1  0
  3  4  1  0
  4  5  1  0
  5  6  2  0
  6  7  1  0
  7  8  2  0
  8  9  1  0
  9 10  2  0
 10 11  1  0
 11 12  1  0
 12 13  2  0
  2 14  1  0
 14 15  1  0
 15 16  1  0
 16 17  2  0
 17 18  1  0
 18 19  2  0
 14 20  1  0
 20 21  1  0
 21 22  1  0
 13  5  1  0
 22 14  1  0
 12  8  1  0
 19 15  1  0
M  END
>  <inchikey>  (694) 
MFZCMMKAORBXOZ-UHFFFAOYSA-N

>  <energy_score>  (694) 
-37.3287

>  <subsites>  (694) 
5 - A3181/A/202/1,3 - A0541/A/147/1

>  <alias>  (694) 
C678-P71

>  <tags>  (694) 
openbind_a71ev2a_c1_scaffolds,BulkDock Fragalysis export,openbind_a71ev2a_c1_knitwork_impure,fragmenstein_placed

>  <distance_score>  (694) 
0.382584

>  <placement_batch>  (694) 
openbind_a71ev2a_c1_knitwork_impure

>  <name>  (694) 
C678-P71

>  <ref_mols>  (694) 
A3181b,A0428a

>  <smiles>  (694) 
O=C(OCc1ccc2cn[nH]c2c1)C1(n2cccn2)CCC1

>  <HIPPO Compound ID>  (694) 
4095

>  <HIPPO Pose ID>  (694) 
472156

>  <ref_pdb>  (694) 
A0556a

$$$$
C2399-P384
     RDKit          3D

 15 15  0  0  0  0  0  0  0  0999 V2000
    7.7282   14.1895   22.2064 C   0  0  0  0  0  0  0  0  0  0  0  0
    8.7023   14.3168   23.1327 C   0  0  0  0  0  0  0  0  0  0  0  0
    9.8378   15.2778   22.9462 C   0  0  0  0  0  0  0  0  0  0  0  0
   11.0520   14.7306   23.1829 F   0  0  0  0  0  0  0  0  0  0  0  0
    9.8740   15.7748   21.6816 F   0  0  0  0  0  0  0  0  0  0  0  0
    9.7190   16.3423   23.7811 F   0  0  0  0  0  0  0  0  0  0  0  0
    8.6869   13.5911   24.4654 C   0  0  2  0  0  0  0  0  0  0  0  0
    7.7034   14.3127   25.3955 C   0  0  0  0  0  0  0  0  0  0  0  0
    9.9152   13.6749   25.0773 F   0  0  0  0  0  0  0  0  0  0  0  0
    8.3928   12.0682   24.2969 C   0  0  1  0  0  0  0  0  0  0  0  0
    9.6118   11.3579   23.6684 C   0  0  0  0  0  0  0  0  0  0  0  0
    9.8283    9.9281   24.1538 C   0  0  0  0  0  0  0  0  0  0  0  0
    8.5284    9.2349   24.4816 C   0  0  0  0  0  0  0  0  0  0  0  0
    7.6803    9.9620   25.4216 N   0  0  0  0  0  0  0  0  0  0  0  0
    8.0138   11.3709   25.5944 C   0  0  0  0  0  0  0  0  0  0  0  0
  1  2  2  0
  2  3  1  0
  3  4  1  0
  3  5  1  0
  3  6  1  0
  2  7  1  0
  7  8  1  1
  7  9  1  0
  7 10  1  0
 10 11  1  1
 11 12  1  0
 12 13  1  0
 13 14  1  0
 14 15  1  0
 15 10  1  0
M  END
>  <inchikey>  (695) 
LQRJFVLGKSJEGN-UHFFFAOYSA-N

>  <energy_score>  (695) 
-30.201167

>  <subsites>  (695) 
1 - Active Site

>  <alias>  (695) 
C2399-P384

>  <tags>  (695) 
openbind_a71ev2a_c1_scaffolds,BulkDock Fragalysis export,openbind_a71ev2a_c1_knitwork_impure,fragmenstein_placed

>  <distance_score>  (695) 
0.810254

>  <placement_batch>  (695) 
openbind_a71ev2a_c1_knitwork_impure

>  <name>  (695) 
C2399-P384

>  <ref_mols>  (695) 
A4509a,A0875a

>  <smiles>  (695) 
C=C(C(F)(F)F)[C@](C)(F)[C@H]1CCCNC1

>  <HIPPO Compound ID>  (695) 
1613

>  <HIPPO Pose ID>  (695) 
472182

>  <ref_pdb>  (695) 
A0556a

$$$$
C1627-P176
     RDKit          3D

 16 16  0  0  0  0  0  0  0  0999 V2000
    5.6208   11.8670   26.4726 C   0  0  0  0  0  0  0  0  0  0  0  0
    6.6857   12.0917   25.4564 C   0  0  0  0  0  0  0  0  0  0  0  0
    7.7605   11.3046   25.3313 C   0  0  0  0  0  0  0  0  0  0  0  0
    8.9482   11.5556   24.4577 C   0  0  0  0  0  0  0  0  0  0  0  0
    9.3987   13.0067   24.2281 C   0  0  1  0  0  0  0  0  0  0  0  0
    9.6910   13.9104   25.4313 C   0  0  0  0  0  0  0  0  0  0  0  0
    8.4971   14.5270   26.1325 C   0  0  0  0  0  0  0  0  0  0  0  0
   10.7602   12.9657   23.5277 C   0  0  0  0  0  0  0  0  0  0  0  0
   11.6436   12.2914   23.8655 O   0  0  0  0  0  0  0  0  0  0  0  0
   10.6884   14.0323   22.4326 N   0  0  0  0  0  0  0  0  0  0  0  0
   11.6547   14.4303   21.4601 C   0  0  0  0  0  0  0  0  0  0  0  0
   10.8411   15.2375   20.5340 C   0  0  0  0  0  0  0  0  0  0  0  0
   10.6907   15.1779   19.1736 C   0  0  0  0  0  0  0  0  0  0  0  0
    9.7289   16.0781   18.8276 O   0  0  0  0  0  0  0  0  0  0  0  0
    9.3714   16.6693   19.9980 C   0  0  0  0  0  0  0  0  0  0  0  0
    9.9683   16.1824   21.0538 N   0  0  0  0  0  0  0  0  0  0  0  0
  1  2  1  0
  2  3  2  3
  3  4  1  0
  5  4  1  1
  5  6  1  0
  6  7  1  0
  5  8  1  0
  8  9  2  0
  8 10  1  0
 10 11  1  0
 11 12  1  0
 12 13  2  0
 13 14  1  0
 14 15  1  0
 15 16  2  0
 16 12  1  0
M  END
>  <inchikey>  (696) 
AWDDJZCLAJFCAI-UHFFFAOYSA-N

>  <energy_score>  (696) 
-13.265361

>  <subsites>  (696) 
1 - Active Site

>  <alias>  (696) 
C1627-P176

>  <tags>  (696) 
openbind_a71ev2a_c1_scaffolds,BulkDock Fragalysis export,openbind_a71ev2a_c1_knitwork_impure,fragmenstein_placed

>  <distance_score>  (696) 
0.91069

>  <placement_batch>  (696) 
openbind_a71ev2a_c1_knitwork_impure

>  <name>  (696) 
C1627-P176

>  <ref_mols>  (696) 
A3392a,A1778a

>  <smiles>  (696) 
CC=CC[C@@H](CC)C(=O)NCc1cocn1

>  <HIPPO Compound ID>  (696) 
35844

>  <HIPPO Pose ID>  (696) 
472411

>  <ref_pdb>  (696) 
A0556a

$$$$
C7182-P336
     RDKit          3D

 22 23  0  0  0  0  0  0  0  0999 V2000
    9.4039   10.1852   23.4264 C   0  0  0  0  0  0  0  0  0  0  0  0
    8.4770   10.8287   24.3833 C   0  0  0  0  0  0  0  0  0  0  0  0
    7.5319   10.2395   25.1732 C   0  0  0  0  0  0  0  0  0  0  0  0
    6.9081   11.2527   25.9051 C   0  0  0  0  0  0  0  0  0  0  0  0
    5.8703   10.9944   26.7463 N   0  0  0  0  0  0  0  0  0  0  0  0
    5.2824   11.8385   27.9145 C   0  0  0  0  0  0  0  0  0  0  0  0
    5.6485   12.8454   28.3792 O   0  0  0  0  0  0  0  0  0  0  0  0
    3.9842   11.1249   28.3186 C   0  0  0  0  0  0  0  0  0  0  0  0
    3.4241   11.3526   29.7273 C   0  0  1  0  0  0  0  0  0  0  0  0
    3.2873   12.8268   30.0974 C   0  0  0  0  0  0  0  0  0  0  0  0
    2.0488   10.6918   29.8232 C   0  0  0  0  0  0  0  0  0  0  0  0
    1.5573   10.7547   31.0785 F   0  0  0  0  0  0  0  0  0  0  0  0
    2.1020    9.3852   29.4769 F   0  0  0  0  0  0  0  0  0  0  0  0
    1.1577   11.2791   28.9951 F   0  0  0  0  0  0  0  0  0  0  0  0
    7.4572   12.4336   25.6339 N   0  0  0  0  0  0  0  0  0  0  0  0
    8.3510   12.1647   24.6494 N   0  0  0  0  0  0  0  0  0  0  0  0
    8.9872   13.2355   23.9093 C   0  0  0  0  0  0  0  0  0  0  0  0
    9.6394   14.3097   24.7784 C   0  0  0  0  0  0  0  0  0  0  0  0
   10.3955   15.2859   23.8756 C   0  0  0  0  0  0  0  0  0  0  0  0
    9.4899   15.8555   22.7839 C   0  0  0  0  0  0  0  0  0  0  0  0
    8.7770   14.7902   21.9722 C   0  0  0  0  0  0  0  0  0  0  0  0
    8.0186   13.8500   22.8961 C   0  0  0  0  0  0  0  0  0  0  0  0
  1  2  1  0
  2  3  2  0
  3  4  1  0
  4  5  1  0
  5  6  1  0
  6  7  2  0
  6  8  1  0
  8  9  1  0
  9 10  1  6
  9 11  1  0
 11 12  1  0
 11 13  1  0
 11 14  1  0
  4 15  2  0
 15 16  1  0
 16 17  1  0
 17 18  1  0
 18 19  1  0
 19 20  1  0
 20 21  1  0
 21 22  1  0
 16  2  1  0
 22 17  1  0
M  END
>  <inchikey>  (697) 
WCQICRGOXXDKIA-UHFFFAOYSA-N

>  <energy_score>  (697) 
-7.002798

>  <subsites>  (697) 
1 - Active Site

>  <alias>  (697) 
C7182-P336

>  <tags>  (697) 
openbind_a71ev2a_c1_scaffolds,BulkDock Fragalysis export,openbind_a71ev2a_c1_knitwork_impure,fragmenstein_placed

>  <distance_score>  (697) 
0.913904

>  <placement_batch>  (697) 
openbind_a71ev2a_c1_knitwork_impure

>  <name>  (697) 
C7182-P336

>  <ref_mols>  (697) 
A1445a,A4214a

>  <smiles>  (697) 
Cc1cc(NC(=O)C[C@@H](C)C(F)(F)F)nn1C1CCCCC1

>  <HIPPO Compound ID>  (697) 
2388

>  <HIPPO Pose ID>  (697) 
472641

>  <ref_pdb>  (697) 
A0514b

$$$$
C13001-P22
     RDKit          3D

 12 12  0  0  0  0  0  0  0  0999 V2000
    7.5030   11.3751   25.3169 C   0  0  0  0  0  0  0  0  0  0  0  0
    7.9539   12.5896   24.9732 C   0  0  0  0  0  0  0  0  0  0  0  0
    7.0154   13.9770   25.3718 Cl  0  0  0  0  0  0  0  0  0  0  0  0
    9.3092   12.7024   24.2996 C   0  0  0  0  0  0  0  0  0  0  0  0
    9.8981   11.7345   24.0237 O   0  0  0  0  0  0  0  0  0  0  0  0
    9.7154   14.1846   24.1880 N   0  0  0  0  0  0  0  0  0  0  0  0
   10.8980   14.7940   23.6238 C   0  0  1  0  0  0  0  0  0  0  0  0
   12.0038   13.8330   23.1821 C   0  0  0  0  0  0  0  0  0  0  0  0
   12.8481   14.6852   22.2516 C   0  0  0  0  0  0  0  0  0  0  0  0
   11.9089   15.5905   21.6594 N   0  0  0  0  0  0  0  0  0  0  0  0
   10.7063   15.6101   22.3432 C   0  0  0  0  0  0  0  0  0  0  0  0
    9.7246   16.2433   21.9962 O   0  0  0  0  0  0  0  0  0  0  0  0
  1  2  2  0
  2  3  1  0
  2  4  1  0
  4  5  2  0
  4  6  1  0
  7  6  1  6
  7  8  1  0
  8  9  1  0
  9 10  1  0
 10 11  1  0
 11 12  2  0
 11  7  1  0
M  END
>  <inchikey>  (698) 
NSDGADWCIGGTNK-UHFFFAOYSA-N

>  <energy_score>  (698) 
-2.778902

>  <subsites>  (698) 
1 - Active Site

>  <alias>  (698) 
C13001-P22

>  <tags>  (698) 
openbind_a71ev2a_c1_scaffolds,BulkDock Fragalysis export,openbind_a71ev2a_c1_knitwork_impure,fragmenstein_placed

>  <distance_score>  (698) 
0.771287

>  <placement_batch>  (698) 
openbind_a71ev2a_c1_knitwork_impure

>  <name>  (698) 
C13001-P22

>  <ref_mols>  (698) 
A1445a,A0528a

>  <smiles>  (698) 
C=C(Cl)C(=O)N[C@H]1CCNC1=O

>  <HIPPO Compound ID>  (698) 
9590

>  <HIPPO Pose ID>  (698) 
472904

>  <ref_pdb>  (698) 
A0514b

$$$$
C8052-P2
     RDKit          3D

 19 19  0  0  0  0  0  0  0  0999 V2000
   11.8904   15.5581   21.1150 C   0  0  0  0  0  0  0  0  0  0  0  0
   10.4187   15.6533   20.6811 C   0  0  0  0  0  0  0  0  0  0  0  0
   10.3920   15.3041   19.1829 C   0  0  0  0  0  0  0  0  0  0  0  0
    9.8480   17.0687   20.8049 C   0  0  0  0  0  0  0  0  0  0  0  0
    9.5502   14.6720   21.5091 C   0  0  0  0  0  0  0  0  0  0  0  0
    9.2550   15.0064   22.9861 C   0  0  1  0  0  0  0  0  0  0  0  0
    8.4750   13.9384   23.5944 N   0  0  0  0  0  0  0  0  0  0  0  0
    7.4562   13.9771   24.7396 C   0  0  0  0  0  0  0  0  0  0  0  0
    7.0190   14.8790   25.3298 O   0  0  0  0  0  0  0  0  0  0  0  0
    7.1197   12.5699   25.1285 C   0  0  0  0  0  0  0  0  0  0  0  0
    6.1785   12.3343   26.1189 C   0  0  0  0  0  0  0  0  0  0  0  0
    5.9276   11.0171   26.4641 C   0  0  0  0  0  0  0  0  0  0  0  0
    6.6208   10.0043   25.8094 C   0  0  0  0  0  0  0  0  0  0  0  0
    7.5740   10.3297   24.8584 C   0  0  0  0  0  0  0  0  0  0  0  0
    7.8419   11.5962   24.4961 N   0  0  0  0  0  0  0  0  0  0  0  0
   10.4682   15.3182   23.8763 C   0  0  0  0  0  0  0  0  0  0  0  0
   11.4793   14.4391   23.7052 F   0  0  0  0  0  0  0  0  0  0  0  0
   10.9468   16.5552   23.6554 F   0  0  0  0  0  0  0  0  0  0  0  0
   10.1506   15.2876   25.1980 F   0  0  0  0  0  0  0  0  0  0  0  0
  1  2  1  0
  2  3  1  0
  2  4  1  0
  2  5  1  0
  6  5  1  6
  6  7  1  0
  7  8  1  0
  8  9  2  0
  8 10  1  0
 10 11  2  0
 11 12  1  0
 12 13  2  0
 13 14  1  0
 14 15  2  0
  6 16  1  0
 16 17  1  0
 16 18  1  0
 16 19  1  0
 15 10  1  0
M  END
>  <inchikey>  (699) 
YVLAVJGZJRKIEO-UHFFFAOYSA-N

>  <energy_score>  (699) 
-13.110209

>  <subsites>  (699) 
6 - A0486/A/147/1,1 - Active Site

>  <alias>  (699) 
C8052-P2

>  <tags>  (699) 
openbind_a71ev2a_c1_scaffolds,BulkDock Fragalysis export,openbind_a71ev2a_c1_knitwork_impure,fragmenstein_placed

>  <distance_score>  (699) 
0.996092

>  <placement_batch>  (699) 
openbind_a71ev2a_c1_knitwork_impure

>  <name>  (699) 
C8052-P2

>  <ref_mols>  (699) 
A4298a,A0239a,A1778a

>  <smiles>  (699) 
CC(C)(C)C[C@@H](NC(=O)c1ccccn1)C(F)(F)F

>  <HIPPO Compound ID>  (699) 
10829

>  <HIPPO Pose ID>  (699) 
472971

>  <ref_pdb>  (699) 
A0514b

$$$$
C4719-P339
     RDKit          3D

 10 10  0  0  0  0  0  0  0  0999 V2000
    7.4569   11.5658   25.8530 O   0  0  0  0  0  0  0  0  0  0  0  0
    7.4862   12.7136   25.4106 C   0  0  0  0  0  0  0  0  0  0  0  0
    8.7403   13.3131   24.8470 C   0  0  0  0  0  0  0  0  0  0  0  0
    8.4339   14.1736   23.6221 C   0  0  0  0  0  0  0  0  0  0  0  0
    9.6352   14.4680   22.8362 N   0  0  0  0  0  0  0  0  0  0  0  0
   10.6882   15.1427   23.6081 C   0  0  0  0  0  0  0  0  0  0  0  0
   11.8749   15.5042   22.7697 C   0  0  0  0  0  0  0  0  0  0  0  0
   11.8157   15.6190   21.4363 C   0  0  0  0  0  0  0  0  0  0  0  0
   10.5292   15.4057   20.6951 C   0  0  0  0  0  0  0  0  0  0  0  0
    9.3126   15.2602   21.6307 C   0  0  0  0  0  0  0  0  0  0  0  0
  1  2  2  0
  2  3  1  0
  3  4  1  0
  4  5  1  0
  5  6  1  0
  6  7  1  0
  7  8  2  0
  8  9  1  0
  9 10  1  0
 10  5  1  0
M  END
>  <inchikey>  (700) 
NQGNDAMYFAXCMF-UHFFFAOYSA-N

>  <energy_score>  (700) 
-22.25969

>  <subsites>  (700) 
1 - Active Site

>  <alias>  (700) 
C4719-P339

>  <tags>  (700) 
openbind_a71ev2a_c1_scaffolds,BulkDock Fragalysis export,openbind_a71ev2a_c1_knitwork_impure,fragmenstein_placed

>  <distance_score>  (700) 
0.674664

>  <placement_batch>  (700) 
openbind_a71ev2a_c1_knitwork_impure

>  <name>  (700) 
C4719-P339

>  <ref_mols>  (700) 
A1775a,A4237b

>  <smiles>  (700) 
O=CCCN1CC=CCC1

>  <HIPPO Compound ID>  (700) 
8445

>  <HIPPO Pose ID>  (700) 
473057

>  <ref_pdb>  (700) 
A0514b

$$$$
C4725-P339
     RDKit          3D

 10 10  0  0  0  0  0  0  0  0999 V2000
    7.7658   11.1819   25.7681 O   0  0  0  0  0  0  0  0  0  0  0  0
    6.9136   12.0657   25.7644 C   0  0  0  0  0  0  0  0  0  0  0  0
    5.7106   12.0939   26.6768 C   0  0  0  0  0  0  0  0  0  0  0  0
    5.4598   10.7276   27.3170 C   0  0  0  0  0  0  0  0  0  0  0  0
    4.1832   10.6058   28.0621 N   0  0  0  0  0  0  0  0  0  0  0  0
    4.0470    9.1955   28.5120 C   0  0  0  0  0  0  0  0  0  0  0  0
    2.7095    8.8786   29.1891 C   0  0  0  0  0  0  0  0  0  0  0  0
    2.4670    9.8473   30.7052 S   0  0  0  0  0  0  0  0  0  0  0  0
    2.8061   11.4826   29.9899 C   0  0  0  0  0  0  0  0  0  0  0  0
    4.1353   11.5218   29.2221 C   0  0  0  0  0  0  0  0  0  0  0  0
  1  2  2  0
  2  3  1  0
  3  4  1  0
  4  5  1  0
  5  6  1  0
  6  7  1  0
  7  8  1  0
  8  9  1  0
  9 10  1  0
 10  5  1  0
M  END
>  <inchikey>  (701) 
CJKOILGHLOVXNN-UHFFFAOYSA-N

>  <energy_score>  (701) 
-35.504302

>  <subsites>  (701) 
1 - Active Site

>  <alias>  (701) 
C4725-P339

>  <tags>  (701) 
openbind_a71ev2a_c1_scaffolds,BulkDock Fragalysis export,openbind_a71ev2a_c1_knitwork_impure,fragmenstein_placed

>  <distance_score>  (701) 
0.765029

>  <placement_batch>  (701) 
openbind_a71ev2a_c1_knitwork_impure

>  <name>  (701) 
C4725-P339

>  <ref_mols>  (701) 
A1775a,A4237b

>  <smiles>  (701) 
O=CCCN1CCSCC1

>  <HIPPO Compound ID>  (701) 
6095

>  <HIPPO Pose ID>  (701) 
473058

>  <ref_pdb>  (701) 
A0514b

$$$$
C4754-P423
     RDKit          3D

 11 12  0  0  0  0  0  0  0  0999 V2000
    7.1097   10.8144   25.2109 C   0  0  0  0  0  0  0  0  0  0  0  0
    7.5270    9.5962   24.8586 N   0  0  0  0  0  0  0  0  0  0  0  0
    8.5644    9.8465   24.0396 N   0  0  0  0  0  0  0  0  0  0  0  0
    8.8353   11.1785   23.9033 C   0  0  0  0  0  0  0  0  0  0  0  0
    7.8865   11.8464   24.6394 C   0  0  0  0  0  0  0  0  0  0  0  0
    7.7389   13.1985   24.7785 N   0  0  0  0  0  0  0  0  0  0  0  0
    6.3589   13.7258   24.9412 C   0  0  0  0  0  0  0  0  0  0  0  0
    6.3647   15.1979   25.4085 C   0  0  0  0  0  0  0  0  0  0  0  0
    7.1523   16.0829   24.5377 N   0  0  0  0  0  0  0  0  0  0  0  0
    8.5220   15.5552   24.4358 C   0  0  0  0  0  0  0  0  0  0  0  0
    8.5854   14.0905   23.9492 C   0  0  0  0  0  0  0  0  0  0  0  0
  1  2  2  0
  2  3  1  0
  3  4  1  0
  4  5  2  0
  5  6  1  0
  6  7  1  0
  7  8  1  0
  8  9  1  0
  9 10  1  0
 10 11  1  0
  5  1  1  0
 11  6  1  0
M  END
>  <inchikey>  (702) 
AEIDFRMVQVHORR-UHFFFAOYSA-N

>  <energy_score>  (702) 
-28.759616

>  <subsites>  (702) 
1 - Active Site,3 - A0541/A/147/1

>  <alias>  (702) 
C4754-P423

>  <tags>  (702) 
openbind_a71ev2a_c1_scaffolds,BulkDock Fragalysis export,openbind_a71ev2a_c1_knitwork_impure,fragmenstein_placed

>  <distance_score>  (702) 
0.827448

>  <placement_batch>  (702) 
openbind_a71ev2a_c1_knitwork_impure

>  <name>  (702) 
C4754-P423

>  <ref_mols>  (702) 
A0556a,A0717a,A4650a

>  <smiles>  (702) 
c1n[nH]cc1N1CCNCC1

>  <HIPPO Compound ID>  (702) 
8457

>  <HIPPO Pose ID>  (702) 
473307

>  <ref_pdb>  (702) 
A0514b

$$$$
C4761-P423
     RDKit          3D

 11 12  0  0  0  0  0  0  0  0999 V2000
    7.0225   10.7200   25.2288 C   0  0  0  0  0  0  0  0  0  0  0  0
    7.5454    9.5649   24.8244 N   0  0  0  0  0  0  0  0  0  0  0  0
    8.4971    9.9304   23.9487 N   0  0  0  0  0  0  0  0  0  0  0  0
    8.6049   11.2865   23.8197 C   0  0  0  0  0  0  0  0  0  0  0  0
    7.6452   11.8448   24.6420 C   0  0  0  0  0  0  0  0  0  0  0  0
    7.3019   13.2778   24.9227 C   0  0  1  0  0  0  0  0  0  0  0  0
    8.5183   14.2238   25.0052 C   0  0  0  0  0  0  0  0  0  0  0  0
    9.2011   14.7652   23.4052 S   0  0  0  0  0  0  0  0  0  0  0  0
    7.6295   15.2410   22.6296 C   0  0  0  0  0  0  0  0  0  0  0  0
    6.6153   14.1049   22.6970 C   0  0  0  0  0  0  0  0  0  0  0  0
    6.2055   13.7256   24.0508 N   0  0  0  0  0  0  0  0  0  0  0  0
  1  2  2  0
  2  3  1  0
  3  4  1  0
  4  5  2  0
  6  5  1  6
  6  7  1  0
  7  8  1  0
  8  9  1  0
  9 10  1  0
 10 11  1  0
  5  1  1  0
 11  6  1  0
M  END
>  <inchikey>  (703) 
YHYKEJKTQQPYIL-UHFFFAOYSA-N

>  <energy_score>  (703) 
-30.716984

>  <subsites>  (703) 
1 - Active Site,3 - A0541/A/147/1

>  <alias>  (703) 
C4761-P423

>  <tags>  (703) 
openbind_a71ev2a_c1_scaffolds,BulkDock Fragalysis export,openbind_a71ev2a_c1_knitwork_impure,fragmenstein_placed

>  <distance_score>  (703) 
0.838295

>  <placement_batch>  (703) 
openbind_a71ev2a_c1_knitwork_impure

>  <name>  (703) 
C4761-P423

>  <ref_mols>  (703) 
A0556a,A0717a,A4650a

>  <smiles>  (703) 
c1n[nH]cc1[C@H]1CSCCN1

>  <HIPPO Compound ID>  (703) 
10574

>  <HIPPO Pose ID>  (703) 
473309

>  <ref_pdb>  (703) 
A0514b

$$$$
C18193-P364
     RDKit          3D

 12 12  0  0  0  0  0  0  0  0999 V2000
    8.6537   11.0405   24.6231 C   0  0  0  0  0  0  0  0  0  0  0  0
    9.2766   12.4020   24.8471 C   0  0  0  0  0  0  0  0  0  0  0  0
    8.7274   13.2977   23.8849 O   0  0  0  0  0  0  0  0  0  0  0  0
    9.6860   14.2350   23.3405 N   0  0  0  0  0  0  0  0  0  0  0  0
   10.0351   15.3174   24.2470 C   0  0  0  0  0  0  0  0  0  0  0  0
   11.2523   15.0877   25.1330 C   0  0  0  0  0  0  0  0  0  0  0  0
   10.7230   13.5915   22.5401 C   0  0  0  0  0  0  0  0  0  0  0  0
   11.2504   14.5815   21.5864 C   0  0  0  0  0  0  0  0  0  0  0  0
   12.2237   15.5634   21.8310 C   0  0  0  0  0  0  0  0  0  0  0  0
   12.3835   16.3753   20.8019 N   0  0  0  0  0  0  0  0  0  0  0  0
   11.5892   15.8605   19.8511 N   0  0  0  0  0  0  0  0  0  0  0  0
   10.8752   14.7982   20.2809 C   0  0  0  0  0  0  0  0  0  0  0  0
  1  2  1  0
  2  3  1  0
  3  4  1  0
  4  5  1  0
  5  6  1  0
  4  7  1  0
  7  8  1  0
  8  9  1  0
  9 10  2  0
 10 11  1  0
 11 12  1  0
 12  8  2  0
M  END
>  <inchikey>  (704) 
AOLCLQJMUNNQFC-UHFFFAOYSA-N

>  <energy_score>  (704) 
-27.883706

>  <subsites>  (704) 
1 - Active Site

>  <alias>  (704) 
C18193-P364

>  <tags>  (704) 
openbind_a71ev2a_c1_scaffolds,BulkDock Fragalysis export,openbind_a71ev2a_c1_knitwork_impure,fragmenstein_placed

>  <distance_score>  (704) 
0.956082

>  <placement_batch>  (704) 
openbind_a71ev2a_c1_knitwork_impure

>  <name>  (704) 
C18193-P364

>  <ref_mols>  (704) 
A2304a,A4445b

>  <smiles>  (704) 
CCON(CC)Cc1cn[nH]c1

>  <HIPPO Compound ID>  (704) 
20144

>  <HIPPO Pose ID>  (704) 
473324

>  <ref_pdb>  (704) 
A0514b

$$$$
C961-P288
     RDKit          3D

 18 20  0  0  0  0  0  0  0  0999 V2000
   25.9814   13.0496   -2.4725 O   0  0  0  0  0  0  0  0  0  0  0  0
   25.0698   12.5223   -1.9615 C   0  0  0  0  0  0  0  0  0  0  0  0
   23.7399   11.9854   -2.5742 N   0  0  0  0  0  0  0  0  0  0  0  0
   23.2520   12.0705   -3.8495 N   0  0  0  0  0  0  0  0  0  0  0  0
   22.3815   11.0831   -4.2181 C   0  0  0  0  0  0  0  0  0  0  0  0
   21.6819   10.3189   -3.4405 N   0  0  0  0  0  0  0  0  0  0  0  0
   20.8949    9.3729   -4.2537 C   0  0  0  0  0  0  0  0  0  0  0  0
   20.6536    9.9533   -5.6358 C   0  0  0  0  0  0  0  0  0  0  0  0
   22.1786   10.8561   -5.9424 S   0  0  0  0  0  0  0  0  0  0  0  0
   25.0640   12.1363   -0.4675 C   0  0  1  0  0  0  0  0  0  0  0  0
   26.4192   12.4425    0.2016 C   0  0  0  0  0  0  0  0  0  0  0  0
   26.3475   12.2712    1.7228 C   0  0  0  0  0  0  0  0  0  0  0  0
   25.3048   13.2056    2.3368 C   0  0  0  0  0  0  0  0  0  0  0  0
   24.0960   13.2686    1.5507 N   0  0  0  0  0  0  0  0  0  0  0  0
   22.9074   13.8196    1.8996 C   0  0  0  0  0  0  0  0  0  0  0  0
   22.0627   13.6870    0.9018 N   0  0  0  0  0  0  0  0  0  0  0  0
   22.7194   13.0407   -0.1225 N   0  0  0  0  0  0  0  0  0  0  0  0
   23.9600   12.8258    0.2631 C   0  0  0  0  0  0  0  0  0  0  0  0
  1  2  2  0
  2  3  1  0
  3  4  1  0
  4  5  1  0
  5  6  2  0
  6  7  1  0
  7  8  1  0
  8  9  1  0
 10  2  1  6
 10 11  1  0
 11 12  1  0
 12 13  1  0
 13 14  1  0
 14 15  1  0
 15 16  2  0
 16 17  1  0
 17 18  2  0
  9  5  1  0
 18 10  1  0
 18 14  1  0
M  END
>  <inchikey>  (705) 
NCZRZHLAOIEOQJ-UHFFFAOYSA-N

>  <energy_score>  (705) 
-51.756074

>  <subsites>  (705) 
6 - A0486/A/147/1,1 - Active Site

>  <alias>  (705) 
C961-P288

>  <tags>  (705) 
openbind_a71ev2a_c1_scaffolds,BulkDock Fragalysis export,openbind_a71ev2a_c1_knitwork_impure,fragmenstein_placed

>  <distance_score>  (705) 
0.506362

>  <placement_batch>  (705) 
openbind_a71ev2a_c1_knitwork_impure

>  <name>  (705) 
C961-P288

>  <ref_mols>  (705) 
A4304a,A0239a

>  <smiles>  (705) 
O=C(NNC1=NCCS1)[C@H]1CCCn2cnnc21

>  <HIPPO Compound ID>  (705) 
9522

>  <HIPPO Pose ID>  (705) 
473346

>  <ref_pdb>  (705) 
A0514b

$$$$
C8156-P364
     RDKit          3D

 14 14  0  0  0  0  0  0  0  0999 V2000
    7.8300   13.7495   22.8198 C   0  0  0  0  0  0  0  0  0  0  0  0
    9.0700   13.2992   23.5929 C   0  0  2  0  0  0  0  0  0  0  0  0
    9.4306   11.9587   23.2180 O   0  0  0  0  0  0  0  0  0  0  0  0
    8.8952   13.2947   25.1162 C   0  0  0  0  0  0  0  0  0  0  0  0
    9.8765   13.1691   25.8636 O   0  0  0  0  0  0  0  0  0  0  0  0
    7.4665   13.2737   25.6912 C   0  0  1  0  0  0  0  0  0  0  0  0
    7.0069   11.8175   25.7912 C   0  0  0  0  0  0  0  0  0  0  0  0
    5.6859   11.6815   26.5359 C   0  0  0  0  0  0  0  0  0  0  0  0
    5.6819   12.4573   27.8445 C   0  0  0  0  0  0  0  0  0  0  0  0
    6.1549   13.8914   27.6380 C   0  0  0  0  0  0  0  0  0  0  0  0
    7.4627   13.9544   26.9949 N   0  0  0  0  0  0  0  0  0  0  0  0
   10.2103   14.2843   23.2745 C   0  0  0  0  0  0  0  0  0  0  0  0
   10.0701   15.4319   23.9908 F   0  0  0  0  0  0  0  0  0  0  0  0
   10.1430   14.6709   21.9688 F   0  0  0  0  0  0  0  0  0  0  0  0
  2  1  1  6
  2  3  1  0
  2  4  1  0
  4  5  2  0
  6  4  1  1
  6  7  1  0
  7  8  1  0
  8  9  1  0
  9 10  1  0
 10 11  1  0
  2 12  1  0
 12 13  1  0
 12 14  1  0
 11  6  1  0
M  END
>  <inchikey>  (706) 
FJKFFRDIVHDZAT-UHFFFAOYSA-N

>  <energy_score>  (706) 
-29.802301

>  <subsites>  (706) 
1 - Active Site

>  <alias>  (706) 
C8156-P364

>  <tags>  (706) 
openbind_a71ev2a_c1_scaffolds,BulkDock Fragalysis export,openbind_a71ev2a_c1_knitwork_impure,fragmenstein_placed

>  <distance_score>  (706) 
0.998032

>  <placement_batch>  (706) 
openbind_a71ev2a_c1_knitwork_impure

>  <name>  (706) 
C8156-P364

>  <ref_mols>  (706) 
A4445b,A0719a

>  <smiles>  (706) 
C[C@](O)(C(=O)[C@H]1CCCCN1)C(F)F

>  <HIPPO Compound ID>  (706) 
3473

>  <HIPPO Pose ID>  (706) 
474184

>  <ref_pdb>  (706) 
A0514b

$$$$
C956-P233
     RDKit          3D

 18 20  0  0  0  0  0  0  0  0999 V2000
   22.4157   14.1758    2.9557 C   0  0  0  0  0  0  0  0  0  0  0  0
   22.8159   13.5701    1.6717 C   0  0  0  0  0  0  0  0  0  0  0  0
   22.1260   13.5733    0.5493 N   0  0  0  0  0  0  0  0  0  0  0  0
   22.8764   12.9448   -0.4175 N   0  0  0  0  0  0  0  0  0  0  0  0
   24.0107   12.5657    0.1359 C   0  0  0  0  0  0  0  0  0  0  0  0
   24.0034   12.9300    1.4552 N   0  0  0  0  0  0  0  0  0  0  0  0
   25.1190   12.7757    2.3628 C   0  0  0  0  0  0  0  0  0  0  0  0
   26.2078   11.8568    1.8068 C   0  0  0  0  0  0  0  0  0  0  0  0
   26.4562   12.1270    0.3202 C   0  0  0  0  0  0  0  0  0  0  0  0
   25.1795   11.8886   -0.4986 C   0  0  2  0  0  0  0  0  0  0  0  0
   25.2961   12.3839   -1.8485 N   0  0  0  0  0  0  0  0  0  0  0  0
   26.4469   12.2474   -2.8724 C   0  0  0  0  0  0  0  0  0  0  0  0
   27.4451   11.6494   -2.8110 O   0  0  0  0  0  0  0  0  0  0  0  0
   26.0201   13.0562   -4.0914 C   0  0  0  0  0  0  0  0  0  0  0  0
   27.0492   13.0463   -5.2206 C   0  0  0  0  0  0  0  0  0  0  0  0
   26.5561   13.7006   -6.5425 C   0  0  0  0  0  0  0  0  0  0  0  0
   27.6056   12.5520   -7.4904 S   0  0  0  0  0  0  0  0  0  0  0  0
   27.2878   11.6751   -5.9205 C   0  0  0  0  0  0  0  0  0  0  0  0
  1  2  1  0
  2  3  2  0
  3  4  1  0
  4  5  2  0
  5  6  1  0
  6  7  1  0
  7  8  1  0
  8  9  1  0
  9 10  1  0
 10 11  1  6
 11 12  1  0
 12 13  2  0
 12 14  1  0
 14 15  1  0
 15 16  1  0
 16 17  1  0
 17 18  1  0
  6  2  1  0
 18 15  1  0
 10  5  1  0
M  END
>  <inchikey>  (707) 
KGGJPHPTENSXJT-UHFFFAOYSA-N

>  <energy_score>  (707) 
-9.306262

>  <subsites>  (707) 
6 - A0486/A/147/1,1 - Active Site

>  <alias>  (707) 
C956-P233

>  <tags>  (707) 
openbind_a71ev2a_c1_scaffolds,BulkDock Fragalysis export,openbind_a71ev2a_c1_knitwork_impure,fragmenstein_placed

>  <distance_score>  (707) 
0.339411

>  <placement_batch>  (707) 
openbind_a71ev2a_c1_knitwork_impure

>  <name>  (707) 
C956-P233

>  <ref_mols>  (707) 
A3890a,A0239a

>  <smiles>  (707) 
Cc1nnc2n1CCC[C@@H]2NC(=O)CC1CSC1

>  <HIPPO Compound ID>  (707) 
7045

>  <HIPPO Pose ID>  (707) 
474245

>  <ref_pdb>  (707) 
A0514b

$$$$
C1002-P233
     RDKit          3D

 20 22  0  0  0  0  0  0  0  0999 V2000
   30.3043    7.9564    1.3616 C   0  0  0  0  0  0  0  0  0  0  0  0
   30.0455    9.0362    1.8197 C   0  0  0  0  0  0  0  0  0  0  0  0
   29.7414   10.3605    2.3824 C   0  0  2  0  0  0  0  0  0  0  0  0
   28.4210   10.7529    1.9602 N   0  0  0  0  0  0  0  0  0  0  0  0
   27.4960   11.8849    2.4730 C   0  0  0  0  0  0  0  0  0  0  0  0
   27.6912   12.7207    3.2624 O   0  0  0  0  0  0  0  0  0  0  0  0
   26.1812   11.7772    1.6914 C   0  0  2  0  0  0  0  0  0  0  0  0
   26.3704   12.0856    0.1937 C   0  0  0  0  0  0  0  0  0  0  0  0
   25.0579   11.8821   -0.5674 C   0  0  0  0  0  0  0  0  0  0  0  0
   23.9360   12.5675    0.1144 C   0  0  0  0  0  0  0  0  0  0  0  0
   22.7741   12.9281   -0.3822 N   0  0  0  0  0  0  0  0  0  0  0  0
   22.0667   13.5528    0.6198 N   0  0  0  0  0  0  0  0  0  0  0  0
   22.8115   13.5576    1.7069 C   0  0  0  0  0  0  0  0  0  0  0  0
   22.4726   14.1646    3.0067 C   0  0  0  0  0  0  0  0  0  0  0  0
   23.9879   12.9198    1.4345 N   0  0  0  0  0  0  0  0  0  0  0  0
   25.1403   12.7399    2.2933 C   0  0  0  0  0  0  0  0  0  0  0  0
   30.7094   11.4052    1.8337 C   0  0  0  0  0  0  0  0  0  0  0  0
   30.7627   12.7932    2.5379 C   0  0  0  0  0  0  0  0  0  0  0  0
   32.2813   12.7893    2.2765 C   0  0  0  0  0  0  0  0  0  0  0  0
   32.1990   11.2508    2.2644 C   0  0  0  0  0  0  0  0  0  0  0  0
  1  2  3  0
  3  2  1  6
  3  4  1  0
  4  5  1  0
  5  6  2  0
  7  5  1  1
  7  8  1  0
  8  9  1  0
  9 10  1  0
 10 11  2  0
 11 12  1  0
 12 13  2  0
 13 14  1  0
 13 15  1  0
 15 16  1  0
  3 17  1  0
 17 18  1  0
 18 19  1  0
 19 20  1  0
 16  7  1  0
 20 17  1  0
 15 10  1  0
M  END
>  <inchikey>  (708) 
LRTLCHQEZXDGPD-UHFFFAOYSA-N

>  <energy_score>  (708) 
-8.238322

>  <subsites>  (708) 
6 - A0486/A/147/1,1 - Active Site

>  <alias>  (708) 
C1002-P233

>  <tags>  (708) 
openbind_a71ev2a_c1_scaffolds,BulkDock Fragalysis export,openbind_a71ev2a_c1_knitwork_impure,fragmenstein_placed

>  <distance_score>  (708) 
0.34466

>  <placement_batch>  (708) 
openbind_a71ev2a_c1_knitwork_impure

>  <name>  (708) 
C1002-P233

>  <ref_mols>  (708) 
A3890a,A0239a

>  <smiles>  (708) 
C#C[C@H](NC(=O)[C@@H]1CCc2nnc(C)n2C1)C1CCC1

>  <HIPPO Compound ID>  (708) 
10681

>  <HIPPO Pose ID>  (708) 
474246

>  <ref_pdb>  (708) 
A0514b

$$$$
C1003-P233
     RDKit          3D

 23 25  0  0  0  0  0  0  0  0999 V2000
   31.3861   10.6387   -0.5198 C   0  0  0  0  0  0  0  0  0  0  0  0
   30.8292   11.0261    0.4717 C   0  0  0  0  0  0  0  0  0  0  0  0
   30.1462   11.5052    1.6813 C   0  0  1  0  0  0  0  0  0  0  0  0
   28.7285   11.5347    1.4336 N   0  0  0  0  0  0  0  0  0  0  0  0
   27.6501   12.5544    1.8801 C   0  0  0  0  0  0  0  0  0  0  0  0
   27.7570   13.5657    2.4509 O   0  0  0  0  0  0  0  0  0  0  0  0
   26.2997   12.0559    1.3271 C   0  0  2  0  0  0  0  0  0  0  0  0
   26.3578   12.0215   -0.2125 C   0  0  0  0  0  0  0  0  0  0  0  0
   25.0362   11.5450   -0.7934 C   0  0  0  0  0  0  0  0  0  0  0  0
   23.9219   12.3510   -0.2600 C   0  0  0  0  0  0  0  0  0  0  0  0
   22.7738   12.5992   -0.8392 N   0  0  0  0  0  0  0  0  0  0  0  0
   22.0820   13.4494   -0.0292 N   0  0  0  0  0  0  0  0  0  0  0  0
   22.8165   13.7257    1.0347 C   0  0  0  0  0  0  0  0  0  0  0  0
   22.3456   14.6333    2.1433 C   0  0  0  0  0  0  0  0  0  0  0  0
   21.2507   15.5828    1.6057 C   0  0  0  0  0  0  0  0  0  0  0  0
   21.6738   13.7694    3.1975 C   0  0  0  0  0  0  0  0  0  0  0  0
   23.4605   15.5124    2.7178 C   0  0  0  0  0  0  0  0  0  0  0  0
   23.9810   12.9962    0.9484 N   0  0  0  0  0  0  0  0  0  0  0  0
   25.1521   12.9838    1.8070 C   0  0  0  0  0  0  0  0  0  0  0  0
   30.3768   10.5620    2.8498 C   0  0  0  0  0  0  0  0  0  0  0  0
   29.8635   11.0328    4.2350 C   0  0  0  0  0  0  0  0  0  0  0  0
   31.1223   10.3886    4.8480 C   0  0  0  0  0  0  0  0  0  0  0  0
   31.8002   10.5845    3.4785 C   0  0  0  0  0  0  0  0  0  0  0  0
  1  2  3  0
  3  2  1  6
  3  4  1  0
  4  5  1  0
  5  6  2  0
  7  5  1  1
  7  8  1  0
  8  9  1  0
  9 10  1  0
 10 11  2  0
 11 12  1  0
 12 13  2  0
 13 14  1  0
 14 15  1  0
 14 16  1  0
 14 17  1  0
 13 18  1  0
 18 19  1  0
  3 20  1  0
 20 21  1  0
 21 22  1  0
 22 23  1  0
 19  7  1  0
 23 20  1  0
 18 10  1  0
M  END
>  <inchikey>  (709) 
NXHRTCNOEDZCPH-UHFFFAOYSA-N

>  <energy_score>  (709) 
-24.64993

>  <subsites>  (709) 
6 - A0486/A/147/1,1 - Active Site

>  <alias>  (709) 
C1003-P233

>  <tags>  (709) 
openbind_a71ev2a_c1_scaffolds,BulkDock Fragalysis export,openbind_a71ev2a_c1_knitwork_impure,fragmenstein_placed

>  <distance_score>  (709) 
0.937604

>  <placement_batch>  (709) 
openbind_a71ev2a_c1_knitwork_impure

>  <name>  (709) 
C1003-P233

>  <ref_mols>  (709) 
A3890a,A0239a

>  <smiles>  (709) 
C#C[C@@H](NC(=O)[C@@H]1CCc2nnc(C(C)(C)C)n2C1)C1CCC1

>  <HIPPO Compound ID>  (709) 
21624

>  <HIPPO Pose ID>  (709) 
474247

>  <ref_pdb>  (709) 
A0514b

$$$$
C4745-P180
     RDKit          3D

 11 12  0  0  0  0  0  0  0  0999 V2000
   11.5049   15.0889   22.2059 C   0  0  0  0  0  0  0  0  0  0  0  0
   11.1497   14.3255   23.2923 C   0  0  0  0  0  0  0  0  0  0  0  0
    9.7706   14.0479   23.1100 C   0  0  0  0  0  0  0  0  0  0  0  0
    8.8445   13.1688   23.9000 C   0  0  2  0  0  0  0  0  0  0  0  0
    8.5849   13.6876   25.3282 C   0  0  0  0  0  0  0  0  0  0  0  0
    7.5448   12.9926   26.1240 N   0  0  0  0  0  0  0  0  0  0  0  0
    7.2344   11.6481   25.6196 C   0  0  0  0  0  0  0  0  0  0  0  0
    8.4630   10.8004   25.2937 C   0  0  0  0  0  0  0  0  0  0  0  0
    9.4663   11.4368   23.9277 S   0  0  0  0  0  0  0  0  0  0  0  0
    9.2901   14.6736   22.0272 N   0  0  0  0  0  0  0  0  0  0  0  0
   10.3751   15.2212   21.4521 N   0  0  0  0  0  0  0  0  0  0  0  0
  1  2  2  0
  2  3  1  0
  4  3  1  1
  4  5  1  0
  5  6  1  0
  6  7  1  0
  7  8  1  0
  8  9  1  0
  3 10  2  0
 10 11  1  0
 11  1  1  0
  9  4  1  0
M  END
>  <inchikey>  (710) 
SCPSUPJJEYGKII-UHFFFAOYSA-N

>  <energy_score>  (710) 
-23.971297

>  <subsites>  (710) 
1 - Active Site

>  <alias>  (710) 
C4745-P180

>  <tags>  (710) 
openbind_a71ev2a_c1_scaffolds,BulkDock Fragalysis export,openbind_a71ev2a_c1_knitwork_impure,fragmenstein_placed

>  <distance_score>  (710) 
0.914289

>  <placement_batch>  (710) 
openbind_a71ev2a_c1_knitwork_impure

>  <name>  (710) 
C4745-P180

>  <ref_mols>  (710) 
A2304a,A3417a

>  <smiles>  (710) 
c1cc([C@@H]2CNCCS2)n[nH]1

>  <HIPPO Compound ID>  (710) 
7041

>  <HIPPO Pose ID>  (710) 
474378

>  <ref_pdb>  (710) 
A0514b

$$$$
C1360-P259
     RDKit          3D

 21 22  0  0  0  0  0  0  0  0999 V2000
    9.3601   14.0103   24.9096 C   0  0  0  0  0  0  0  0  0  0  0  0
    7.8900   13.8862   24.4664 C   0  0  1  0  0  0  0  0  0  0  0  0
    7.7617   13.9437   22.9370 C   0  0  0  0  0  0  0  0  0  0  0  0
    7.3309   13.0652   22.3050 O   0  0  0  0  0  0  0  0  0  0  0  0
    8.3863   15.2751   22.4955 N   0  0  0  0  0  0  0  0  0  0  0  0
    8.6877   15.7484   21.2382 O   0  0  0  0  0  0  0  0  0  0  0  0
    9.6998   14.8770   20.7119 C   0  0  0  0  0  0  0  0  0  0  0  0
   10.0437   15.3094   19.3066 C   0  0  0  0  0  0  0  0  0  0  0  0
   10.8676   16.5378   19.5410 C   0  0  0  0  0  0  0  0  0  0  0  0
   11.6321   16.2919   20.8516 C   0  0  0  0  0  0  0  0  0  0  0  0
   11.0321   15.0298   21.4451 C   0  0  0  0  0  0  0  0  0  0  0  0
    7.2694   12.6019   25.0150 C   0  0  0  0  0  0  0  0  0  0  0  0
    7.9194   11.3643   24.8687 C   0  0  0  0  0  0  0  0  0  0  0  0
    7.3642   10.2007   25.3921 C   0  0  0  0  0  0  0  0  0  0  0  0
    6.2012   10.2650   26.1472 C   0  0  0  0  0  0  0  0  0  0  0  0
    5.5219   11.4731   26.2594 C   0  0  0  0  0  0  0  0  0  0  0  0
    5.9901   12.6197   25.6005 C   0  0  0  0  0  0  0  0  0  0  0  0
    5.0829   13.8215   25.4639 C   0  0  0  0  0  0  0  0  0  0  0  0
    5.4120   14.7917   26.3666 F   0  0  0  0  0  0  0  0  0  0  0  0
    5.1422   14.4234   24.2401 F   0  0  0  0  0  0  0  0  0  0  0  0
    3.7680   13.5456   25.6953 F   0  0  0  0  0  0  0  0  0  0  0  0
  2  1  1  6
  2  3  1  0
  3  4  2  0
  3  5  1  0
  5  6  1  0
  6  7  1  0
  7  8  1  0
  8  9  1  0
  9 10  1  0
 10 11  1  0
  2 12  1  0
 12 13  2  0
 13 14  1  0
 14 15  2  0
 15 16  1  0
 16 17  2  0
 17 18  1  0
 18 19  1  0
 18 20  1  0
 18 21  1  0
 11  7  1  0
 17 12  1  0
M  END
>  <inchikey>  (711) 
GITLVNUSBOZLGB-UHFFFAOYSA-N

>  <energy_score>  (711) 
-7.162333

>  <subsites>  (711) 
1 - Active Site

>  <alias>  (711) 
C1360-P259

>  <tags>  (711) 
openbind_a71ev2a_c1_scaffolds,BulkDock Fragalysis export,openbind_a71ev2a_c1_knitwork_impure,fragmenstein_placed

>  <distance_score>  (711) 
0.895155

>  <placement_batch>  (711) 
openbind_a71ev2a_c1_knitwork_impure

>  <name>  (711) 
C1360-P259

>  <ref_mols>  (711) 
A1080a,A3990a

>  <smiles>  (711) 
C[C@@H](C(=O)NOC1CCCC1)c1ccccc1C(F)(F)F

>  <HIPPO Compound ID>  (711) 
758

>  <HIPPO Pose ID>  (711) 
474671

>  <ref_pdb>  (711) 
A0514b

$$$$
C34717-P248
     RDKit          3D

 14 14  0  0  0  0  0  0  0  0999 V2000
    8.9181    8.5626   23.4840 C   0  0  0  0  0  0  0  0  0  0  0  0
    9.2214   10.0284   23.5134 C   0  0  0  0  0  0  0  0  0  0  0  0
    8.1463   10.7033   24.1948 O   0  0  0  0  0  0  0  0  0  0  0  0
    8.2348   12.0351   24.4583 C   0  0  0  0  0  0  0  0  0  0  0  0
    7.5136   12.5599   25.3020 O   0  0  0  0  0  0  0  0  0  0  0  0
    9.2665   12.8103   23.6463 C   0  0  2  0  0  0  0  0  0  0  0  0
   10.5864   12.5171   24.1004 O   0  0  0  0  0  0  0  0  0  0  0  0
    8.9638   14.3149   23.6751 C   0  0  0  0  0  0  0  0  0  0  0  0
    9.8519   15.0253   22.7633 N   0  0  0  0  0  0  0  0  0  0  0  0
    9.5647   15.1905   21.3575 C   0  0  0  0  0  0  0  0  0  0  0  0
   10.9367   15.2736   20.7190 C   0  0  0  0  0  0  0  0  0  0  0  0
   11.8169   15.8562   21.8147 C   0  0  0  0  0  0  0  0  0  0  0  0
   11.1614   15.3510   23.0671 C   0  0  0  0  0  0  0  0  0  0  0  0
   11.6731   15.2443   24.1722 O   0  0  0  0  0  0  0  0  0  0  0  0
  1  2  1  0
  2  3  1  0
  3  4  1  0
  4  5  2  0
  4  6  1  0
  6  7  1  1
  6  8  1  0
  8  9  1  0
  9 10  1  0
 10 11  1  0
 11 12  1  0
 12 13  1  0
 13 14  2  0
 13  9  1  0
M  END
>  <inchikey>  (712) 
WMMQWHGSTLBODB-UHFFFAOYSA-N

>  <energy_score>  (712) 
-27.092252

>  <subsites>  (712) 
1 - Active Site

>  <alias>  (712) 
C34717-P248

>  <tags>  (712) 
openbind_a71ev2a_c1_scaffolds,BulkDock Fragalysis export,openbind_a71ev2a_c1_knitwork_impure,fragmenstein_placed

>  <distance_score>  (712) 
0.877221

>  <placement_batch>  (712) 
openbind_a71ev2a_c1_knitwork_impure

>  <name>  (712) 
C34717-P248

>  <ref_mols>  (712) 
A3956a,A0719a

>  <smiles>  (712) 
CCOC(=O)[C@H](O)CN1CCCC1=O

>  <HIPPO Compound ID>  (712) 
7140

>  <HIPPO Pose ID>  (712) 
474766

>  <ref_pdb>  (712) 
A0514b

$$$$
C2375-P325
     RDKit          3D

 12 12  0  0  0  0  0  0  0  0999 V2000
    7.4516   13.8820   22.7158 C   0  0  0  0  0  0  0  0  0  0  0  0
    8.5901   13.9293   23.4277 C   0  0  0  0  0  0  0  0  0  0  0  0
    9.8361   14.4693   22.7678 C   0  0  0  0  0  0  0  0  0  0  0  0
    8.7600   13.4644   24.8750 C   0  0  2  0  0  0  0  0  0  0  0  0
    9.0631   14.6681   25.7896 C   0  0  0  0  0  0  0  0  0  0  0  0
    9.9053   12.6824   24.9398 F   0  0  0  0  0  0  0  0  0  0  0  0
    7.6434   12.5739   25.5276 C   0  0  1  0  0  0  0  0  0  0  0  0
    6.3397   13.2662   25.9498 C   0  0  0  0  0  0  0  0  0  0  0  0
    5.5671   12.3761   26.9268 C   0  0  0  0  0  0  0  0  0  0  0  0
    5.3886   10.9610   26.3917 C   0  0  0  0  0  0  0  0  0  0  0  0
    6.6712   10.3872   25.7960 C   0  0  0  0  0  0  0  0  0  0  0  0
    7.3357   11.2947   24.8543 N   0  0  0  0  0  0  0  0  0  0  0  0
  1  2  2  0
  2  3  1  0
  2  4  1  0
  4  5  1  1
  4  6  1  0
  4  7  1  0
  7  8  1  6
  8  9  1  0
  9 10  1  0
 10 11  1  0
 11 12  1  0
 12  7  1  0
M  END
>  <inchikey>  (713) 
STBXFODHUIMPAQ-UHFFFAOYSA-N

>  <energy_score>  (713) 
-27.384237

>  <subsites>  (713) 
1 - Active Site

>  <alias>  (713) 
C2375-P325

>  <tags>  (713) 
openbind_a71ev2a_c1_scaffolds,BulkDock Fragalysis export,openbind_a71ev2a_c1_knitwork_impure,fragmenstein_placed

>  <distance_score>  (713) 
0.814396

>  <placement_batch>  (713) 
openbind_a71ev2a_c1_knitwork_impure

>  <name>  (713) 
C2375-P325

>  <ref_mols>  (713) 
A1779a,A4368a

>  <smiles>  (713) 
C=C(C)[C@](C)(F)[C@H]1CCCCN1

>  <HIPPO Compound ID>  (713) 
39173

>  <HIPPO Pose ID>  (713) 
475340

>  <ref_pdb>  (713) 
A0514b

$$$$
C2384-P325
     RDKit          3D

 15 15  0  0  0  0  0  0  0  0999 V2000
   11.6842   14.5375   22.5176 C   0  0  0  0  0  0  0  0  0  0  0  0
   10.7581   15.4611   23.2878 C   0  0  0  0  0  0  0  0  0  0  0  0
    9.2581   15.2724   23.0159 C   0  0  1  0  0  0  0  0  0  0  0  0
    8.9529   15.5204   21.5343 C   0  0  0  0  0  0  0  0  0  0  0  0
    8.6405   13.9321   23.4627 C   0  0  0  0  0  0  0  0  0  0  0  0
    8.1636   13.1609   22.6187 O   0  0  0  0  0  0  0  0  0  0  0  0
    8.6273   13.5181   24.9670 C   0  0  0  0  0  0  0  0  0  0  0  0
    8.6895   14.7292   25.9215 C   0  0  0  0  0  0  0  0  0  0  0  0
    9.9221   12.7051   25.1551 C   0  0  0  0  0  0  0  0  0  0  0  0
    7.2946   12.6511   25.2208 C   0  0  2  0  0  0  0  0  0  0  0  0
    6.3831   13.1559   26.3596 C   0  0  0  0  0  0  0  0  0  0  0  0
    5.1225   12.3074   26.4872 C   0  0  0  0  0  0  0  0  0  0  0  0
    5.4490   10.8320   26.6500 C   0  0  0  0  0  0  0  0  0  0  0  0
    6.3453   10.3379   25.6194 N   0  0  0  0  0  0  0  0  0  0  0  0
    7.5469   11.1375   25.4041 C   0  0  0  0  0  0  0  0  0  0  0  0
  1  2  1  0
  2  3  1  0
  3  4  1  6
  3  5  1  0
  5  6  2  0
  5  7  1  0
  7  8  1  0
  7  9  1  0
 10  7  1  1
 10 11  1  0
 11 12  1  0
 12 13  1  0
 13 14  1  0
 14 15  1  0
 15 10  1  0
M  END
>  <inchikey>  (714) 
GIKLQBAMNJOQJI-UHFFFAOYSA-N

>  <energy_score>  (714) 
-48.729741

>  <subsites>  (714) 
1 - Active Site

>  <alias>  (714) 
C2384-P325

>  <tags>  (714) 
openbind_a71ev2a_c1_scaffolds,BulkDock Fragalysis export,openbind_a71ev2a_c1_knitwork_impure,fragmenstein_placed

>  <distance_score>  (714) 
0.997734

>  <placement_batch>  (714) 
openbind_a71ev2a_c1_knitwork_impure

>  <name>  (714) 
C2384-P325

>  <ref_mols>  (714) 
A1779a,A4368a

>  <smiles>  (714) 
CC[C@@H](C)C(=O)C(C)(C)[C@@H]1CCCNC1

>  <HIPPO Compound ID>  (714) 
1192

>  <HIPPO Pose ID>  (714) 
475349

>  <ref_pdb>  (714) 
A0514b

$$$$
C2397-P325
     RDKit          3D

 15 15  0  0  0  0  0  0  0  0999 V2000
   11.5603   15.2784   18.9714 C   0  0  0  0  0  0  0  0  0  0  0  0
   10.3735   15.5731   19.8763 C   0  0  0  0  0  0  0  0  0  0  0  0
   10.2212   17.0529   20.1918 C   0  0  0  0  0  0  0  0  0  0  0  0
   10.5112   14.8209   21.1979 C   0  0  0  0  0  0  0  0  0  0  0  0
    9.1871   14.7753   21.9364 C   0  0  0  0  0  0  0  0  0  0  0  0
    9.4033   14.1150   23.1758 O   0  0  0  0  0  0  0  0  0  0  0  0
    8.1715   13.6869   23.7500 C   0  0  0  0  0  0  0  0  0  0  0  0
    8.4406   13.2908   25.1992 C   0  0  1  0  0  0  0  0  0  0  0  0
    8.8445   14.5363   26.0118 C   0  0  0  0  0  0  0  0  0  0  0  0
    7.2588   12.5349   25.8424 C   0  0  1  0  0  0  0  0  0  0  0  0
    5.9417   13.3055   25.9296 C   0  0  0  0  0  0  0  0  0  0  0  0
    4.9846   12.5473   26.8494 C   0  0  0  0  0  0  0  0  0  0  0  0
    4.8174   11.0958   26.4202 C   0  0  0  0  0  0  0  0  0  0  0  0
    6.1272   10.4084   26.0467 C   0  0  0  0  0  0  0  0  0  0  0  0
    7.0324   11.2208   25.2268 N   0  0  0  0  0  0  0  0  0  0  0  0
  1  2  1  0
  2  3  1  0
  2  4  1  0
  4  5  1  0
  5  6  1  0
  6  7  1  0
  7  8  1  0
  8  9  1  1
  8 10  1  0
 10 11  1  6
 11 12  1  0
 12 13  1  0
 13 14  1  0
 14 15  1  0
 15 10  1  0
M  END
>  <inchikey>  (715) 
ALNNKLRFJSRBFH-UHFFFAOYSA-N

>  <energy_score>  (715) 
-36.517026

>  <subsites>  (715) 
1 - Active Site

>  <alias>  (715) 
C2397-P325

>  <tags>  (715) 
openbind_a71ev2a_c1_scaffolds,BulkDock Fragalysis export,openbind_a71ev2a_c1_knitwork_impure,fragmenstein_placed

>  <distance_score>  (715) 
0.919968

>  <placement_batch>  (715) 
openbind_a71ev2a_c1_knitwork_impure

>  <name>  (715) 
C2397-P325

>  <ref_mols>  (715) 
A1779a,A4368a

>  <smiles>  (715) 
CC(C)CCOC[C@@H](C)[C@H]1CCCCN1

>  <HIPPO Compound ID>  (715) 
4096

>  <HIPPO Pose ID>  (715) 
475357

>  <ref_pdb>  (715) 
A0514b

$$$$
C2399-P325
     RDKit          3D

 15 15  0  0  0  0  0  0  0  0999 V2000
    7.5605   14.1357   22.5734 C   0  0  0  0  0  0  0  0  0  0  0  0
    8.5490   14.1773   23.4945 C   0  0  0  0  0  0  0  0  0  0  0  0
    9.8038   14.9476   23.1649 C   0  0  0  0  0  0  0  0  0  0  0  0
   10.9400   14.3476   23.5896 F   0  0  0  0  0  0  0  0  0  0  0  0
    9.9441   15.1649   21.8312 F   0  0  0  0  0  0  0  0  0  0  0  0
    9.7810   16.1720   23.7521 F   0  0  0  0  0  0  0  0  0  0  0  0
    8.5263   13.5562   24.9029 C   0  0  2  0  0  0  0  0  0  0  0  0
    8.7352   14.6548   25.9640 C   0  0  0  0  0  0  0  0  0  0  0  0
    9.6345   12.7448   25.0273 F   0  0  0  0  0  0  0  0  0  0  0  0
    7.2685   12.6461   25.1978 C   0  0  2  0  0  0  0  0  0  0  0  0
    6.3249   13.1546   26.3010 C   0  0  0  0  0  0  0  0  0  0  0  0
    5.1183   12.2344   26.4559 C   0  0  0  0  0  0  0  0  0  0  0  0
    5.5267   10.7781   26.6371 C   0  0  0  0  0  0  0  0  0  0  0  0
    6.4889   10.3182   25.6452 N   0  0  0  0  0  0  0  0  0  0  0  0
    7.6530   11.1833   25.4628 C   0  0  0  0  0  0  0  0  0  0  0  0
  1  2  2  0
  2  3  1  0
  3  4  1  0
  3  5  1  0
  3  6  1  0
  2  7  1  0
  7  8  1  1
  7  9  1  0
  7 10  1  0
 10 11  1  1
 11 12  1  0
 12 13  1  0
 13 14  1  0
 14 15  1  0
 15 10  1  0
M  END
>  <inchikey>  (716) 
OLRBJBOVACWGSV-UHFFFAOYSA-N

>  <energy_score>  (716) 
-28.199002

>  <subsites>  (716) 
1 - Active Site

>  <alias>  (716) 
C2399-P325

>  <tags>  (716) 
openbind_a71ev2a_c1_scaffolds,BulkDock Fragalysis export,openbind_a71ev2a_c1_knitwork_impure,fragmenstein_placed

>  <distance_score>  (716) 
0.941705

>  <placement_batch>  (716) 
openbind_a71ev2a_c1_knitwork_impure

>  <name>  (716) 
C2399-P325

>  <ref_mols>  (716) 
A1779a,A4368a

>  <smiles>  (716) 
C=C(C(F)(F)F)[C@](C)(F)[C@@H]1CCCNC1

>  <HIPPO Compound ID>  (716) 
1392

>  <HIPPO Pose ID>  (716) 
475358

>  <ref_pdb>  (716) 
A0514b

$$$$
C2410-P325
     RDKit          3D

 14 14  0  0  0  0  0  0  0  0999 V2000
   11.9236   15.4988   22.3341 C   0  0  0  0  0  0  0  0  0  0  0  0
   11.0810   14.7772   23.3611 C   0  0  0  0  0  0  0  0  0  0  0  0
   11.7859   13.6967   23.7984 F   0  0  0  0  0  0  0  0  0  0  0  0
   10.9044   15.5819   24.4356 F   0  0  0  0  0  0  0  0  0  0  0  0
    9.7449   14.3336   22.7779 C   0  0  0  0  0  0  0  0  0  0  0  0
    9.0401   13.2420   23.5849 C   0  0  0  0  0  0  0  0  0  0  0  0
    8.2044   13.7550   24.7478 C   0  0  2  0  0  0  0  0  0  0  0  0
    9.0224   14.4105   25.6317 F   0  0  0  0  0  0  0  0  0  0  0  0
    7.5065   12.6435   25.5663 C   0  0  1  0  0  0  0  0  0  0  0  0
    6.2992   13.2645   26.2907 C   0  0  0  0  0  0  0  0  0  0  0  0
    5.6175   12.2897   27.2405 C   0  0  0  0  0  0  0  0  0  0  0  0
    5.3430   10.9571   26.5639 C   0  0  0  0  0  0  0  0  0  0  0  0
    6.5735   10.4357   25.8368 C   0  0  0  0  0  0  0  0  0  0  0  0
    7.1170   11.4054   24.8785 N   0  0  0  0  0  0  0  0  0  0  0  0
  1  2  1  0
  2  3  1  0
  2  4  1  0
  2  5  1  0
  5  6  1  0
  6  7  1  0
  7  8  1  1
  7  9  1  0
  9 10  1  6
 10 11  1  0
 11 12  1  0
 12 13  1  0
 13 14  1  0
 14  9  1  0
M  END
>  <inchikey>  (717) 
GEZPFGWIPNSGAO-UHFFFAOYSA-N

>  <energy_score>  (717) 
-40.34627

>  <subsites>  (717) 
1 - Active Site

>  <alias>  (717) 
C2410-P325

>  <tags>  (717) 
openbind_a71ev2a_c1_scaffolds,BulkDock Fragalysis export,openbind_a71ev2a_c1_knitwork_impure,fragmenstein_placed

>  <distance_score>  (717) 
0.952553

>  <placement_batch>  (717) 
openbind_a71ev2a_c1_knitwork_impure

>  <name>  (717) 
C2410-P325

>  <ref_mols>  (717) 
A1779a,A4368a

>  <smiles>  (717) 
CC(F)(F)CC[C@H](F)[C@H]1CCCCN1

>  <HIPPO Compound ID>  (717) 
10571

>  <HIPPO Pose ID>  (717) 
475365

>  <ref_pdb>  (717) 
A0514b

$$$$
C736-P338
     RDKit          3D

 12 13  0  0  0  0  0  0  0  0999 V2000
    8.4928   10.6603   24.6809 C   0  0  0  0  0  0  0  0  0  0  0  0
    9.4223   10.8762   23.6802 C   0  0  0  0  0  0  0  0  0  0  0  0
    9.7367   12.1859   23.3107 C   0  0  0  0  0  0  0  0  0  0  0  0
    9.1217   13.2602   23.9453 C   0  0  0  0  0  0  0  0  0  0  0  0
    9.3720   14.5763   23.5957 N   0  0  0  0  0  0  0  0  0  0  0  0
   10.6536   15.1282   24.0158 C   0  0  0  0  0  0  0  0  0  0  0  0
   11.6910   15.0506   22.9007 C   0  0  0  0  0  0  0  0  0  0  0  0
   11.1769   15.6954   21.6202 C   0  0  0  0  0  0  0  0  0  0  0  0
    9.8525   15.0673   21.2009 C   0  0  0  0  0  0  0  0  0  0  0  0
    8.8237   15.0782   22.3314 C   0  0  0  0  0  0  0  0  0  0  0  0
    8.2344   13.0461   24.9398 N   0  0  0  0  0  0  0  0  0  0  0  0
    7.9271   11.7716   25.2718 C   0  0  0  0  0  0  0  0  0  0  0  0
  1  2  2  0
  2  3  1  0
  3  4  2  0
  4  5  1  0
  5  6  1  0
  6  7  1  0
  7  8  1  0
  8  9  1  0
  9 10  1  0
  4 11  1  0
 11 12  2  0
 12  1  1  0
 10  5  1  0
M  END
>  <inchikey>  (718) 
AJEUJXWLOADTKA-UHFFFAOYSA-N

>  <energy_score>  (718) 
-11.039301

>  <subsites>  (718) 
1 - Active Site

>  <alias>  (718) 
C736-P338

>  <tags>  (718) 
openbind_a71ev2a_c1_scaffolds,BulkDock Fragalysis export,openbind_a71ev2a_c1_knitwork_impure,fragmenstein_placed

>  <distance_score>  (718) 
0.938856

>  <placement_batch>  (718) 
openbind_a71ev2a_c1_knitwork_impure

>  <name>  (718) 
C736-P338

>  <ref_mols>  (718) 
A4237a,A2629a

>  <smiles>  (718) 
c1ccc(N2CCCCC2)nc1

>  <HIPPO Compound ID>  (718) 
736

>  <HIPPO Pose ID>  (718) 
475868

>  <ref_pdb>  (718) 
A0514b

$$$$
C727-P338
     RDKit          3D

 12 13  0  0  0  0  0  0  0  0999 V2000
    9.3714   10.9089   23.8216 C   0  0  0  0  0  0  0  0  0  0  0  0
    9.7322   12.1883   23.4131 C   0  0  0  0  0  0  0  0  0  0  0  0
    9.0556   13.2872   23.9349 C   0  0  0  0  0  0  0  0  0  0  0  0
    9.3345   14.6083   23.5914 N   0  0  0  0  0  0  0  0  0  0  0  0
   10.6461   15.1369   23.9752 C   0  0  0  0  0  0  0  0  0  0  0  0
   11.6651   15.0410   22.8459 C   0  0  0  0  0  0  0  0  0  0  0  0
   11.1368   15.6653   21.5622 C   0  0  0  0  0  0  0  0  0  0  0  0
    9.8000   15.0413   21.1802 C   0  0  0  0  0  0  0  0  0  0  0  0
    8.7870   15.1162   22.3207 C   0  0  0  0  0  0  0  0  0  0  0  0
    8.0321   13.0320   24.8490 C   0  0  0  0  0  0  0  0  0  0  0  0
    7.7344   11.7216   25.1944 C   0  0  0  0  0  0  0  0  0  0  0  0
    8.3873   10.6481   24.7069 N   0  0  0  0  0  0  0  0  0  0  0  0
  1  2  2  0
  2  3  1  0
  3  4  1  0
  4  5  1  0
  5  6  1  0
  6  7  1  0
  7  8  1  0
  8  9  1  0
  3 10  2  0
 10 11  1  0
 11 12  2  0
 12  1  1  0
  9  4  1  0
M  END
>  <inchikey>  (719) 
XHJOMYXOFNVJDG-UHFFFAOYSA-N

>  <energy_score>  (719) 
-12.095839

>  <subsites>  (719) 
1 - Active Site

>  <alias>  (719) 
C727-P338

>  <tags>  (719) 
openbind_a71ev2a_c1_scaffolds,BulkDock Fragalysis export,openbind_a71ev2a_c1_knitwork_impure,fragmenstein_placed

>  <distance_score>  (719) 
0.922935

>  <placement_batch>  (719) 
openbind_a71ev2a_c1_knitwork_impure

>  <name>  (719) 
C727-P338

>  <ref_mols>  (719) 
A4237a,A2629a

>  <smiles>  (719) 
c1cc(N2CCCCC2)ccn1

>  <HIPPO Compound ID>  (719) 
34673

>  <HIPPO Pose ID>  (719) 
475877

>  <ref_pdb>  (719) 
A0514b

$$$$
C10375-P495
     RDKit          3D

 21 24  0  0  0  0  0  0  0  0999 V2000
   19.9080   -2.8309   27.6243 C   0  0  0  0  0  0  0  0  0  0  0  0
   21.0576   -2.0986   27.9279 C   0  0  0  0  0  0  0  0  0  0  0  0
   21.7028   -1.3665   26.9328 C   0  0  0  0  0  0  0  0  0  0  0  0
   22.8281   -0.6064   27.0871 O   0  0  0  0  0  0  0  0  0  0  0  0
   23.4662   -0.5758   28.3663 C   0  0  0  0  0  0  0  0  0  0  0  0
   24.8733   -0.0112   28.1716 C   0  0  0  0  0  0  0  0  0  0  0  0
   24.6743    1.4983   28.0548 C   0  0  0  0  0  0  0  0  0  0  0  0
   23.3494    1.8055   28.7501 C   0  0  0  0  0  0  0  0  0  0  0  0
   22.8314    0.4704   29.2795 C   0  0  0  0  0  0  0  0  0  0  0  0
   21.1814   -1.3666   25.6338 C   0  0  0  0  0  0  0  0  0  0  0  0
   20.0204   -2.0858   25.3162 C   0  0  0  0  0  0  0  0  0  0  0  0
   19.4460   -2.0633   23.9540 C   0  0  0  0  0  0  0  0  0  0  0  0
   19.0337   -3.2781   23.2333 C   0  0  0  0  0  0  0  0  0  0  0  0
   18.4343   -3.2334   22.0268 C   0  0  0  0  0  0  0  0  0  0  0  0
   18.1914   -1.9762   21.4158 C   0  0  0  0  0  0  0  0  0  0  0  0
   17.6011   -1.6164   20.2959 N   0  0  0  0  0  0  0  0  0  0  0  0
   17.6465   -0.2412   20.2204 N   0  0  0  0  0  0  0  0  0  0  0  0
   18.2717    0.1996   21.2910 C   0  0  0  0  0  0  0  0  0  0  0  0
   18.6208   -0.8490   22.0946 N   0  0  0  0  0  0  0  0  0  0  0  0
   19.2334   -0.8765   23.3427 C   0  0  0  0  0  0  0  0  0  0  0  0
   19.3947   -2.8267   26.3268 C   0  0  0  0  0  0  0  0  0  0  0  0
  1  2  2  0
  2  3  1  0
  3  4  1  0
  4  5  1  0
  5  6  1  0
  6  7  1  0
  7  8  1  0
  8  9  1  0
  3 10  2  0
 10 11  1  0
 11 12  1  0
 12 13  1  0
 13 14  2  0
 14 15  1  0
 15 16  2  0
 16 17  1  0
 17 18  2  0
 18 19  1  0
 19 20  1  0
 11 21  2  0
 21  1  1  0
  9  5  1  0
 20 12  2  0
 19 15  1  0
M  END
>  <inchikey>  (720) 
DXSIWZMPELQDJX-UHFFFAOYSA-N

>  <energy_score>  (720) 
-32.397414

>  <subsites>  (720) 
1 - Active Site,2 - A3977/A/202/1

>  <alias>  (720) 
C10375-P495

>  <tags>  (720) 
openbind_a71ev2a_c1_scaffolds,BulkDock Fragalysis export,openbind_a71ev2a_c1_knitwork_impure,fragmenstein_placed

>  <distance_score>  (720) 
0.204832

>  <placement_batch>  (720) 
openbind_a71ev2a_c1_knitwork_impure

>  <name>  (720) 
C10375-P495

>  <ref_mols>  (720) 
A1293a,A4874b

>  <smiles>  (720) 
c1cc(OC2CCCC2)cc(-c2ccc3nncn3c2)c1

>  <HIPPO Compound ID>  (720) 
1413

>  <HIPPO Pose ID>  (720) 
476254

>  <ref_pdb>  (720) 
A0514b

$$$$
C87424-P143
     RDKit          3D

 13 13  0  0  0  0  0  0  0  0999 V2000
    5.9001   16.0998   21.9014 N   0  0  0  0  0  0  0  0  0  0  0  0
    7.0714   15.0626   22.4879 S   0  0  0  0  0  0  0  0  0  0  0  0
    8.3472   15.6636   22.1955 O   0  0  0  0  0  0  0  0  0  0  0  0
    6.7141   13.7655   21.9499 O   0  0  0  0  0  0  0  0  0  0  0  0
    6.7118   15.2107   24.2459 C   0  0  0  0  0  0  0  0  0  0  0  0
    7.6040   14.3181   25.0902 C   0  0  0  0  0  0  0  0  0  0  0  0
    7.1189   12.8738   24.9700 C   0  0  0  0  0  0  0  0  0  0  0  0
    8.1350   11.8483   25.1737 N   0  0  0  0  0  0  0  0  0  0  0  0
    7.5995   10.5216   24.8131 C   0  0  0  0  0  0  0  0  0  0  0  0
    8.3893    9.5986   23.8952 C   0  0  0  0  0  0  0  0  0  0  0  0
    9.5293   10.2565   23.1630 C   0  0  0  0  0  0  0  0  0  0  0  0
    9.3456   11.7496   23.0982 C   0  0  0  0  0  0  0  0  0  0  0  0
    9.3074   12.2688   24.4138 O   0  0  0  0  0  0  0  0  0  0  0  0
  1  2  1  0
  2  3  2  0
  2  4  2  0
  2  5  1  0
  5  6  1  0
  6  7  1  0
  7  8  1  0
  8  9  1  0
  9 10  1  0
 10 11  1  0
 11 12  1  0
 12 13  1  0
 13  8  1  0
M  END
>  <inchikey>  (721) 
PSEWAHCXXIBCFD-UHFFFAOYSA-N

>  <energy_score>  (721) 
-24.31005

>  <subsites>  (721) 
1 - Active Site

>  <alias>  (721) 
C87424-P143

>  <tags>  (721) 
openbind_a71ev2a_c1_scaffolds,BulkDock Fragalysis export,openbind_a71ev2a_c1_knitwork_impure,fragmenstein_placed

>  <distance_score>  (721) 
0.97064

>  <placement_batch>  (721) 
openbind_a71ev2a_c1_knitwork_impure

>  <name>  (721) 
C87424-P143

>  <ref_mols>  (721) 
A0719a,A3178a

>  <smiles>  (721) 
NS(=O)(=O)CCCN1CCCCO1

>  <HIPPO Compound ID>  (721) 
29426

>  <HIPPO Pose ID>  (721) 
476601

>  <ref_pdb>  (721) 
A0514b

$$$$
C87425-P143
     RDKit          3D

 13 13  0  0  0  0  0  0  0  0999 V2000
    9.0618    9.1757   23.3693 C   0  0  0  0  0  0  0  0  0  0  0  0
    8.6133   10.5515   23.8360 C   0  0  0  0  0  0  0  0  0  0  0  0
    9.6050   11.6002   23.3810 C   0  0  0  0  0  0  0  0  0  0  0  0
    9.3530   13.2345   24.0270 S   0  0  0  0  0  0  0  0  0  0  0  0
   10.5353   13.6086   24.7769 O   0  0  0  0  0  0  0  0  0  0  0  0
    8.0442   13.2920   24.6399 O   0  0  0  0  0  0  0  0  0  0  0  0
    9.2509   14.1386   22.5677 N   0  0  0  0  0  0  0  0  0  0  0  0
   10.3780   14.9935   22.3959 N   0  0  0  0  0  0  0  0  0  0  0  0
   11.5820   14.2815   21.8981 C   0  0  0  0  0  0  0  0  0  0  0  0
   12.1861   14.8311   20.5939 C   0  0  0  0  0  0  0  0  0  0  0  0
   11.2187   15.0209   19.5675 O   0  0  0  0  0  0  0  0  0  0  0  0
   10.0737   15.7411   20.0112 C   0  0  0  0  0  0  0  0  0  0  0  0
   10.0816   16.1181   21.4899 C   0  0  0  0  0  0  0  0  0  0  0  0
  1  2  1  0
  2  3  1  0
  3  4  1  0
  4  5  2  0
  4  6  2  0
  4  7  1  0
  7  8  1  0
  8  9  1  0
  9 10  1  0
 10 11  1  0
 11 12  1  0
 12 13  1  0
 13  8  1  0
M  END
>  <inchikey>  (722) 
KRIKUQAZPILDPI-UHFFFAOYSA-N

>  <energy_score>  (722) 
-49.446657

>  <subsites>  (722) 
1 - Active Site

>  <alias>  (722) 
C87425-P143

>  <tags>  (722) 
openbind_a71ev2a_c1_scaffolds,BulkDock Fragalysis export,openbind_a71ev2a_c1_knitwork_impure,fragmenstein_placed

>  <distance_score>  (722) 
0.751337

>  <placement_batch>  (722) 
openbind_a71ev2a_c1_knitwork_impure

>  <name>  (722) 
C87425-P143

>  <ref_mols>  (722) 
A0719a,A3178a

>  <smiles>  (722) 
CCCS(=O)(=O)NN1CCOCC1

>  <HIPPO Compound ID>  (722) 
10567

>  <HIPPO Pose ID>  (722) 
476603

>  <ref_pdb>  (722) 
A0514b

$$$$
C7479-P289
     RDKit          3D

 23 24  0  0  0  0  0  0  0  0999 V2000
    3.6617   12.3925   17.9366 C   0  0  0  0  0  0  0  0  0  0  0  0
    3.4857   12.4234   19.4488 C   0  0  0  0  0  0  0  0  0  0  0  0
    2.4770   11.3704   19.8916 C   0  0  0  0  0  0  0  0  0  0  0  0
    3.0758   13.7678   19.8901 C   0  0  0  0  0  0  0  0  0  0  0  0
    2.0478   14.3277   19.1910 O   0  0  0  0  0  0  0  0  0  0  0  0
    1.9049   15.5451   19.7474 C   0  0  0  0  0  0  0  0  0  0  0  0
    2.7321   15.8043   20.7409 N   0  0  0  0  0  0  0  0  0  0  0  0
    3.4710   14.6516   20.8773 C   0  0  0  0  0  0  0  0  0  0  0  0
    4.4651   14.4588   21.9797 C   0  0  0  0  0  0  0  0  0  0  0  0
    5.6022   15.3544   21.8437 N   0  0  0  0  0  0  0  0  0  0  0  0
    7.1074   14.7611   22.2955 S   0  0  0  0  0  0  0  0  0  0  0  0
    7.1199   13.4155   21.7356 O   0  0  0  0  0  0  0  0  0  0  0  0
    8.0100   15.6919   21.6516 O   0  0  0  0  0  0  0  0  0  0  0  0
    6.9377   14.8339   23.8178 N   0  0  0  0  0  0  0  0  0  0  0  0
    8.2583   14.5476   24.5486 S   0  0  2  0  0  0  0  0  0  0  0  0
    8.0392   15.2037   26.1908 C   0  0  0  0  0  0  0  0  0  0  0  0
    9.5566   15.0275   24.1219 O   0  0  0  0  0  0  0  0  0  0  0  0
    8.4656   12.7935   24.8957 C   0  0  0  0  0  0  0  0  0  0  0  0
    9.3813   12.1045   23.8795 C   0  0  0  0  0  0  0  0  0  0  0  0
    9.6203   10.6445   24.2441 C   0  0  0  0  0  0  0  0  0  0  0  0
    8.3322    9.8762   24.4680 C   0  0  0  0  0  0  0  0  0  0  0  0
    7.3594   10.5853   25.3996 C   0  0  0  0  0  0  0  0  0  0  0  0
    7.1439   12.0499   25.0417 C   0  0  0  0  0  0  0  0  0  0  0  0
  1  2  1  0
  2  3  1  0
  2  4  1  0
  4  5  1  0
  5  6  1  0
  6  7  2  0
  7  8  1  0
  8  9  1  0
  9 10  1  0
 10 11  1  0
 11 12  2  0
 11 13  2  0
 11 14  1  0
 14 15  2  0
 15 16  1  1
 15 17  2  0
 15 18  1  0
 18 19  1  0
 19 20  1  0
 20 21  1  0
 21 22  1  0
 22 23  1  0
  8  4  2  0
 23 18  1  0
M  END
>  <inchikey>  (723) 
UZZGPWHIXVWDFZ-UHFFFAOYSA-N

>  <energy_score>  (723) 
-242.428977

>  <subsites>  (723) 
1 - Active Site

>  <alias>  (723) 
C7479-P289

>  <tags>  (723) 
openbind_a71ev2a_c1_scaffolds,BulkDock Fragalysis export,openbind_a71ev2a_c1_knitwork_impure,fragmenstein_placed

>  <distance_score>  (723) 
0.855147

>  <placement_batch>  (723) 
openbind_a71ev2a_c1_knitwork_impure

>  <name>  (723) 
C7479-P289

>  <ref_mols>  (723) 
A3623a,A4305a

>  <smiles>  (723) 
CC(C)c1ocnc1CNS(=O)(=O)N=[S@](C)(=O)C1CCCCC1

>  <HIPPO Compound ID>  (723) 
4106

>  <HIPPO Pose ID>  (723) 
476976

>  <ref_pdb>  (723) 
A0514b

$$$$
C7672-P439
     RDKit          3D

 13 13  0  0  0  0  0  0  0  0999 V2000
   11.4825   15.0087   21.2987 C   0  0  0  0  0  0  0  0  0  0  0  0
   11.2173   14.2407   22.5858 C   0  0  0  0  0  0  0  0  0  0  0  0
   10.2537   14.9844   23.4850 C   0  0  0  0  0  0  0  0  0  0  0  0
    8.5331   14.6737   23.1271 S   0  0  0  0  0  0  0  0  0  0  0  0
    8.3259   14.4521   21.7173 O   0  0  0  0  0  0  0  0  0  0  0  0
    7.7267   15.5835   23.9060 O   0  0  0  0  0  0  0  0  0  0  0  0
    8.3442   13.1599   23.8560 N   0  0  0  0  0  0  0  0  0  0  0  0
    7.3462   13.1171   24.9555 C   0  0  0  0  0  0  0  0  0  0  0  0
    6.8851   11.6780   25.1267 C   0  0  0  0  0  0  0  0  0  0  0  0
    6.6103   11.2422   26.5472 C   0  0  0  0  0  0  0  0  0  0  0  0
    5.7297   12.4808   27.5264 S   0  0  0  0  0  0  0  0  0  0  0  0
    6.8423   13.9057   27.2945 C   0  0  0  0  0  0  0  0  0  0  0  0
    7.9279   13.6978   26.2430 C   0  0  0  0  0  0  0  0  0  0  0  0
  1  2  1  0
  2  3  1  0
  3  4  1  0
  4  5  2  0
  4  6  2  0
  4  7  1  0
  7  8  1  0
  8  9  1  0
  9 10  1  0
 10 11  1  0
 11 12  1  0
 12 13  1  0
 13  8  1  0
M  END
>  <inchikey>  (724) 
RGEDMRQLXNWHGH-UHFFFAOYSA-N

>  <energy_score>  (724) 
-49.064676

>  <subsites>  (724) 
1 - Active Site

>  <alias>  (724) 
C7672-P439

>  <tags>  (724) 
openbind_a71ev2a_c1_scaffolds,BulkDock Fragalysis export,openbind_a71ev2a_c1_knitwork_impure,fragmenstein_placed

>  <distance_score>  (724) 
0.984104

>  <placement_batch>  (724) 
openbind_a71ev2a_c1_knitwork_impure

>  <name>  (724) 
C7672-P439

>  <ref_mols>  (724) 
A0719a,A4706a

>  <smiles>  (724) 
CCCS(=O)(=O)NC1CCSCC1

>  <HIPPO Compound ID>  (724) 
4752

>  <HIPPO Pose ID>  (724) 
477786

>  <ref_pdb>  (724) 
A0514b

$$$$
C18486-P183
     RDKit          3D

 21 24  0  0  0  0  0  0  0  0999 V2000
   27.1410   20.0150   21.5904 C   0  0  0  0  0  0  0  0  0  0  0  0
   28.2403   20.4045   20.8322 C   0  0  0  0  0  0  0  0  0  0  0  0
   28.0754   21.1758   19.6766 C   0  0  0  0  0  0  0  0  0  0  0  0
   26.7728   21.5448   19.2994 C   0  0  0  0  0  0  0  0  0  0  0  0
   26.2471   22.4708   17.9528 S   0  0  0  0  0  0  0  0  0  0  0  0
   24.5974   22.3299   18.4628 C   0  0  0  0  0  0  0  0  0  0  0  0
   23.5510   22.9757   17.8530 N   0  0  0  0  0  0  0  0  0  0  0  0
   23.5889   23.2682   16.4086 C   0  0  0  0  0  0  0  0  0  0  0  0
   22.5202   24.3171   16.0075 C   0  0  0  0  0  0  0  0  0  0  0  0
   21.1553   23.9578   16.5102 N   0  0  0  0  0  0  0  0  0  0  0  0
   20.1611   24.8387   16.0270 C   0  0  0  0  0  0  0  0  0  0  0  0
   19.3537   25.6294   16.8497 C   0  0  0  0  0  0  0  0  0  0  0  0
   18.3944   26.4559   16.2772 C   0  0  0  0  0  0  0  0  0  0  0  0
   18.1682   26.5463   14.9527 N   0  0  0  0  0  0  0  0  0  0  0  0
   18.9351   25.7668   14.1668 C   0  0  0  0  0  0  0  0  0  0  0  0
   19.9211   24.9179   14.6484 C   0  0  0  0  0  0  0  0  0  0  0  0
   21.1808   23.7043   17.9726 C   0  0  0  0  0  0  0  0  0  0  0  0
   22.2057   22.6103   18.3314 C   0  0  0  0  0  0  0  0  0  0  0  0
   24.4432   21.6130   19.5581 N   0  0  0  0  0  0  0  0  0  0  0  0
   25.6592   21.1668   20.0435 C   0  0  0  0  0  0  0  0  0  0  0  0
   25.8492   20.3907   21.2064 C   0  0  0  0  0  0  0  0  0  0  0  0
  1  2  2  0
  2  3  1  0
  3  4  2  0
  4  5  1  0
  5  6  1  0
  6  7  1  0
  7  8  1  0
  8  9  1  0
  9 10  1  0
 10 11  1  0
 11 12  2  0
 12 13  1  0
 13 14  2  0
 14 15  1  0
 15 16  2  0
 10 17  1  0
 17 18  1  0
  6 19  2  0
 19 20  1  0
 20 21  2  0
 21  1  1  0
 20  4  1  0
 18  7  1  0
 16 11  1  0
M  END
>  <inchikey>  (725) 
ZLIGEXAOTFMWIY-UHFFFAOYSA-N

>  <energy_score>  (725) 
-92.531481

>  <subsites>  (725) 
1 - Active Site,5 - A3181/A/202/1

>  <alias>  (725) 
C18486-P183

>  <tags>  (725) 
openbind_a71ev2a_c1_scaffolds,BulkDock Fragalysis export,openbind_a71ev2a_c1_knitwork_impure,fragmenstein_placed

>  <distance_score>  (725) 
0.506389

>  <placement_batch>  (725) 
openbind_a71ev2a_c1_knitwork_impure

>  <name>  (725) 
C18486-P183

>  <ref_mols>  (725) 
A0514b,A3436a

>  <smiles>  (725) 
c1ccc2sc(N3CCN(c4ccncc4)CC3)nc2c1

>  <HIPPO Compound ID>  (725) 
31957

>  <HIPPO Pose ID>  (725) 
477874

>  <ref_pdb>  (725) 
A0514b

$$$$
C8161-P192
     RDKit          3D

 17 17  0  0  0  0  0  0  0  0999 V2000
    6.3847   14.5234   22.7307 C   0  0  0  0  0  0  0  0  0  0  0  0
    7.6054   13.6228   22.5339 C   0  0  0  0  0  0  0  0  0  0  0  0
    8.8290   13.8201   23.4895 C   0  0  2  0  0  0  0  0  0  0  0  0
    9.8082   12.6522   23.2362 C   0  0  0  0  0  0  0  0  0  0  0  0
    8.3690   13.7658   25.0036 C   0  0  1  0  0  0  0  0  0  0  0  0
    7.7338   15.0101   25.3422 O   0  0  0  0  0  0  0  0  0  0  0  0
    7.4146   12.6358   25.3920 C   0  0  0  0  0  0  0  0  0  0  0  0
    8.1478   11.4879   25.7805 O   0  0  0  0  0  0  0  0  0  0  0  0
    7.4775   10.2586   25.5901 C   0  0  0  0  0  0  0  0  0  0  0  0
    6.0164   10.2292   25.9882 C   0  0  0  0  0  0  0  0  0  0  0  0
    7.8916    9.6939   24.2634 C   0  0  0  0  0  0  0  0  0  0  0  0
    9.4473   15.1809   23.2953 N   0  0  0  0  0  0  0  0  0  0  0  0
   10.7732   15.3976   23.8910 C   0  0  0  0  0  0  0  0  0  0  0  0
   11.9500   15.0980   22.9605 C   0  0  0  0  0  0  0  0  0  0  0  0
   11.8166   15.8021   21.6176 C   0  0  0  0  0  0  0  0  0  0  0  0
   10.4630   15.4981   21.0030 C   0  0  0  0  0  0  0  0  0  0  0  0
    9.3571   15.8560   21.9871 C   0  0  0  0  0  0  0  0  0  0  0  0
  1  2  1  0
  2  3  1  0
  3  4  1  1
  3  5  1  0
  5  6  1  6
  5  7  1  0
  7  8  1  0
  8  9  1  0
  9 10  1  0
  9 11  1  0
  3 12  1  0
 12 13  1  0
 13 14  1  0
 14 15  1  0
 15 16  1  0
 16 17  1  0
 17 12  1  0
M  END
>  <inchikey>  (726) 
SBMHKWRHORHXQA-UHFFFAOYSA-N

>  <energy_score>  (726) 
-60.796017

>  <subsites>  (726) 
1 - Active Site

>  <alias>  (726) 
C8161-P192

>  <tags>  (726) 
openbind_a71ev2a_c1_scaffolds,BulkDock Fragalysis export,openbind_a71ev2a_c1_knitwork_impure,fragmenstein_placed

>  <distance_score>  (726) 
0.97908

>  <placement_batch>  (726) 
openbind_a71ev2a_c1_knitwork_impure

>  <name>  (726) 
C8161-P192

>  <ref_mols>  (726) 
A3510a,A0719a

>  <smiles>  (726) 
CC[C@](C)([C@@H](O)COC(C)C)N1CCCCC1

>  <HIPPO Compound ID>  (726) 
5996

>  <HIPPO Pose ID>  (726) 
478864

>  <ref_pdb>  (726) 
A4806a

$$$$
C8169-P192
     RDKit          3D

 14 14  0  0  0  0  0  0  0  0999 V2000
    7.8043   13.0081   22.3863 O   0  0  0  0  0  0  0  0  0  0  0  0
    8.8348   12.9641   23.3988 S   0  0  0  0  0  0  0  0  0  0  0  0
    9.9912   12.1132   23.2997 O   0  0  0  0  0  0  0  0  0  0  0  0
    9.2918   14.5495   23.6168 N   0  0  0  0  0  0  0  0  0  0  0  0
   10.6055   14.8582   24.1821 C   0  0  0  0  0  0  0  0  0  0  0  0
   11.7369   14.8052   23.1534 C   0  0  0  0  0  0  0  0  0  0  0  0
   11.6642   15.8459   22.0390 C   0  0  0  0  0  0  0  0  0  0  0  0
   10.4113   15.4681   20.8402 Cl  0  0  0  0  0  0  0  0  0  0  0  0
    8.0596   12.5426   24.8613 N   0  0  0  0  0  0  0  0  0  0  0  0
    7.5582   11.1311   24.7089 C   0  0  0  0  0  0  0  0  0  0  0  0
    6.7392   10.6411   25.8873 C   0  0  0  0  0  0  0  0  0  0  0  0
    5.7236   11.6426   26.4061 C   0  0  0  0  0  0  0  0  0  0  0  0
    6.3142   13.0354   26.5226 C   0  0  0  0  0  0  0  0  0  0  0  0
    6.9488   13.4639   25.2091 C   0  0  0  0  0  0  0  0  0  0  0  0
  1  2  2  0
  2  3  2  0
  2  4  1  0
  4  5  1  0
  5  6  1  0
  6  7  1  0
  7  8  1  0
  2  9  1  0
  9 10  1  0
 10 11  1  0
 11 12  1  0
 12 13  1  0
 13 14  1  0
 14  9  1  0
M  END
>  <inchikey>  (727) 
CEMHLKLHGFCDOP-UHFFFAOYSA-N

>  <energy_score>  (727) 
-46.225677

>  <subsites>  (727) 
1 - Active Site

>  <alias>  (727) 
C8169-P192

>  <tags>  (727) 
openbind_a71ev2a_c1_scaffolds,BulkDock Fragalysis export,openbind_a71ev2a_c1_knitwork_impure,fragmenstein_placed

>  <distance_score>  (727) 
0.945879

>  <placement_batch>  (727) 
openbind_a71ev2a_c1_knitwork_impure

>  <name>  (727) 
C8169-P192

>  <ref_mols>  (727) 
A3510a,A0719a

>  <smiles>  (727) 
O=S(=O)(NCCCCl)N1CCCCC1

>  <HIPPO Compound ID>  (727) 
1322

>  <HIPPO Pose ID>  (727) 
478868

>  <ref_pdb>  (727) 
A4806a

$$$$
C7479-P465
     RDKit          3D

 23 24  0  0  0  0  0  0  0  0999 V2000
    3.6720   12.4336   17.9381 C   0  0  0  0  0  0  0  0  0  0  0  0
    3.3477   12.3658   19.4269 C   0  0  0  0  0  0  0  0  0  0  0  0
    2.2570   11.3379   19.6929 C   0  0  0  0  0  0  0  0  0  0  0  0
    2.9647   13.6987   19.9240 C   0  0  0  0  0  0  0  0  0  0  0  0
    1.9699   14.3156   19.2254 O   0  0  0  0  0  0  0  0  0  0  0  0
    1.8737   15.5280   19.8009 C   0  0  0  0  0  0  0  0  0  0  0  0
    2.6926   15.7364   20.8129 N   0  0  0  0  0  0  0  0  0  0  0  0
    3.3761   14.5407   20.9403 C   0  0  0  0  0  0  0  0  0  0  0  0
    4.3736   14.3145   22.0385 C   0  0  0  0  0  0  0  0  0  0  0  0
    5.5565   15.1175   21.7634 N   0  0  0  0  0  0  0  0  0  0  0  0
    7.0437   14.5807   22.3016 S   0  0  0  0  0  0  0  0  0  0  0  0
    7.0324   13.1579   21.9927 O   0  0  0  0  0  0  0  0  0  0  0  0
    7.9561   15.3696   21.5001 O   0  0  0  0  0  0  0  0  0  0  0  0
    6.8794   14.9165   23.7896 N   0  0  0  0  0  0  0  0  0  0  0  0
    8.2113   14.7803   24.5437 S   0  0  2  0  0  0  0  0  0  0  0  0
    7.9356   15.5137   26.1429 C   0  0  0  0  0  0  0  0  0  0  0  0
    9.4713   15.3244   24.0854 O   0  0  0  0  0  0  0  0  0  0  0  0
    8.5352   13.0803   25.0103 C   0  0  0  0  0  0  0  0  0  0  0  0
    9.5157   12.3863   24.0603 C   0  0  0  0  0  0  0  0  0  0  0  0
    9.8520   10.9886   24.5582 C   0  0  0  0  0  0  0  0  0  0  0  0
    8.6180   10.1559   24.8130 C   0  0  0  0  0  0  0  0  0  0  0  0
    7.6030   10.8619   25.6922 C   0  0  0  0  0  0  0  0  0  0  0  0
    7.2641   12.2620   25.2166 C   0  0  0  0  0  0  0  0  0  0  0  0
  1  2  1  0
  2  3  1  0
  2  4  1  0
  4  5  1  0
  5  6  1  0
  6  7  2  0
  7  8  1  0
  8  9  1  0
  9 10  1  0
 10 11  1  0
 11 12  2  0
 11 13  2  0
 11 14  1  0
 14 15  2  0
 15 16  1  1
 15 17  2  0
 15 18  1  0
 18 19  1  0
 19 20  1  0
 20 21  1  0
 21 22  1  0
 22 23  1  0
  8  4  2  0
 23 18  1  0
M  END
>  <inchikey>  (728) 
PXFWFYMNCCXQPY-UHFFFAOYSA-N

>  <energy_score>  (728) 
-112.894619

>  <subsites>  (728) 
1 - Active Site

>  <alias>  (728) 
C7479-P465

>  <tags>  (728) 
openbind_a71ev2a_c1_scaffolds,BulkDock Fragalysis export,openbind_a71ev2a_c1_knitwork_impure,fragmenstein_placed

>  <distance_score>  (728) 
0.824032

>  <placement_batch>  (728) 
openbind_a71ev2a_c1_knitwork_impure

>  <name>  (728) 
C7479-P465

>  <ref_mols>  (728) 
A3623a,A4786a

>  <smiles>  (728) 
CC(C)c1ocnc1CNS(=O)(=O)N=[S@](C)(=O)C1CCCCC1

>  <HIPPO Compound ID>  (728) 
10869

>  <HIPPO Pose ID>  (728) 
478999

>  <ref_pdb>  (728) 
A4806a

$$$$
C11184-P344
     RDKit          3D

 15 15  0  0  0  0  0  0  0  0999 V2000
   11.4419   15.0031   18.7578 C   0  0  0  0  0  0  0  0  0  0  0  0
   10.8212   15.7812   19.6454 C   0  0  0  0  0  0  0  0  0  0  0  0
   10.6807   15.3742   21.0678 C   0  0  0  0  0  0  0  0  0  0  0  0
   11.8462   15.8645   21.9179 C   0  0  0  0  0  0  0  0  0  0  0  0
   12.0437   15.0421   23.1886 C   0  0  0  0  0  0  0  0  0  0  0  0
   10.9144   15.1328   24.2099 C   0  0  0  0  0  0  0  0  0  0  0  0
    9.6513   14.3331   23.9076 C   0  0  0  0  0  0  0  0  0  0  0  0
    9.8380   12.8302   24.0269 C   0  0  0  0  0  0  0  0  0  0  0  0
   10.8535   12.2219   23.6963 O   0  0  0  0  0  0  0  0  0  0  0  0
    8.7184   12.0571   24.6089 C   0  0  0  0  0  0  0  0  0  0  0  0
    8.7007   10.6809   24.4618 C   0  0  0  0  0  0  0  0  0  0  0  0
    7.7240    9.9744   25.1442 C   0  0  0  0  0  0  0  0  0  0  0  0
    6.7929   10.6510   25.9232 C   0  0  0  0  0  0  0  0  0  0  0  0
    6.8686   12.0307   25.9806 C   0  0  0  0  0  0  0  0  0  0  0  0
    7.8232   12.7478   25.3571 N   0  0  0  0  0  0  0  0  0  0  0  0
  1  2  2  0
  2  3  1  0
  3  4  1  0
  4  5  1  0
  5  6  1  0
  6  7  1  0
  7  8  1  0
  8  9  2  0
  8 10  1  0
 10 11  2  0
 11 12  1  0
 12 13  2  0
 13 14  1  0
 14 15  2  0
 15 10  1  0
M  END
>  <inchikey>  (729) 
RWLBYOFXTWUWOG-UHFFFAOYSA-N

>  <energy_score>  (729) 
-2.803335

>  <subsites>  (729) 
1 - Active Site

>  <alias>  (729) 
C11184-P344

>  <tags>  (729) 
openbind_a71ev2a_c1_scaffolds,BulkDock Fragalysis export,openbind_a71ev2a_c1_knitwork_impure,fragmenstein_placed

>  <distance_score>  (729) 
0.761526

>  <placement_batch>  (729) 
openbind_a71ev2a_c1_knitwork_impure

>  <name>  (729) 
C11184-P344

>  <ref_mols>  (729) 
A4274b,A1775a

>  <smiles>  (729) 
C=CCCCCCC(=O)c1ccccn1

>  <HIPPO Compound ID>  (729) 
11184

>  <HIPPO Pose ID>  (729) 
479406

>  <ref_pdb>  (729) 
A4806a

$$$$
C11208-P344
     RDKit          3D

 12 12  0  0  0  0  0  0  0  0999 V2000
   11.0720   12.0511   23.7058 O   0  0  0  0  0  0  0  0  0  0  0  0
   10.0374   12.7075   23.6354 C   0  0  0  0  0  0  0  0  0  0  0  0
    9.9518   14.0568   22.9844 C   0  0  0  0  0  0  0  0  0  0  0  0
   10.5516   15.0552   23.9349 C   0  0  0  0  0  0  0  0  0  0  0  0
   11.8906   15.1539   23.7341 F   0  0  0  0  0  0  0  0  0  0  0  0
   10.0379   16.2842   23.6843 F   0  0  0  0  0  0  0  0  0  0  0  0
    8.8479   12.1891   24.3393 C   0  0  0  0  0  0  0  0  0  0  0  0
    8.6797   10.8165   24.4686 C   0  0  0  0  0  0  0  0  0  0  0  0
    7.6405   10.3625   25.2686 C   0  0  0  0  0  0  0  0  0  0  0  0
    6.8141   11.2841   25.9002 C   0  0  0  0  0  0  0  0  0  0  0  0
    7.0464   12.6352   25.6879 C   0  0  0  0  0  0  0  0  0  0  0  0
    8.0589   13.1155   24.9337 N   0  0  0  0  0  0  0  0  0  0  0  0
  1  2  2  0
  2  3  1  0
  3  4  1  0
  4  5  1  0
  4  6  1  0
  2  7  1  0
  7  8  2  0
  8  9  1  0
  9 10  2  0
 10 11  1  0
 11 12  2  0
 12  7  1  0
M  END
>  <inchikey>  (730) 
BNFWVHFVEZCPPF-UHFFFAOYSA-N

>  <energy_score>  (730) 
-6.461612

>  <subsites>  (730) 
1 - Active Site

>  <alias>  (730) 
C11208-P344

>  <tags>  (730) 
openbind_a71ev2a_c1_scaffolds,BulkDock Fragalysis export,openbind_a71ev2a_c1_knitwork_impure,fragmenstein_placed

>  <distance_score>  (730) 
0.811437

>  <placement_batch>  (730) 
openbind_a71ev2a_c1_knitwork_impure

>  <name>  (730) 
C11208-P344

>  <ref_mols>  (730) 
A4274b,A1775a

>  <smiles>  (730) 
O=C(CC(F)F)c1ccccn1

>  <HIPPO Compound ID>  (730) 
36823

>  <HIPPO Pose ID>  (730) 
479413

>  <ref_pdb>  (730) 
A4806a

$$$$
C961-P444
     RDKit          3D

 18 20  0  0  0  0  0  0  0  0999 V2000
   25.2396   10.8967   -2.0318 O   0  0  0  0  0  0  0  0  0  0  0  0
   24.6040   11.8520   -1.7904 C   0  0  0  0  0  0  0  0  0  0  0  0
   23.3315   12.4298   -2.4994 N   0  0  0  0  0  0  0  0  0  0  0  0
   22.5734   11.9195   -3.5336 N   0  0  0  0  0  0  0  0  0  0  0  0
   22.3868   10.5628   -3.5564 C   0  0  0  0  0  0  0  0  0  0  0  0
   22.1919    9.7415   -2.5794 N   0  0  0  0  0  0  0  0  0  0  0  0
   22.0724    8.3681   -3.1087 C   0  0  0  0  0  0  0  0  0  0  0  0
   22.7894    8.2665   -4.4432 C   0  0  0  0  0  0  0  0  0  0  0  0
   22.4317    9.8703   -5.1709 S   0  0  0  0  0  0  0  0  0  0  0  0
   25.0169   12.8558   -0.6860 C   0  0  2  0  0  0  0  0  0  0  0  0
   26.2792   12.4247    0.0969 C   0  0  0  0  0  0  0  0  0  0  0  0
   25.9611   11.6787    1.3988 C   0  0  0  0  0  0  0  0  0  0  0  0
   25.0850   12.5400    2.3053 C   0  0  0  0  0  0  0  0  0  0  0  0
   23.9470   13.0508    1.5801 N   0  0  0  0  0  0  0  0  0  0  0  0
   22.7953   13.5661    2.0737 C   0  0  0  0  0  0  0  0  0  0  0  0
   22.0502   13.9905    1.0764 N   0  0  0  0  0  0  0  0  0  0  0  0
   22.7453   13.7712   -0.0917 N   0  0  0  0  0  0  0  0  0  0  0  0
   23.8894   13.1990    0.2235 C   0  0  0  0  0  0  0  0  0  0  0  0
  1  2  2  0
  2  3  1  0
  3  4  1  0
  4  5  1  0
  5  6  2  0
  6  7  1  0
  7  8  1  0
  8  9  1  0
 10  2  1  6
 10 11  1  0
 11 12  1  0
 12 13  1  0
 13 14  1  0
 14 15  1  0
 15 16  2  0
 16 17  1  0
 17 18  2  0
  9  5  1  0
 18 10  1  0
 18 14  1  0
M  END
>  <inchikey>  (731) 
PLNOJQJYNMYLML-UHFFFAOYSA-N

>  <energy_score>  (731) 
-27.420201

>  <subsites>  (731) 
6 - A0486/A/147/1,1 - Active Site

>  <alias>  (731) 
C961-P444

>  <tags>  (731) 
openbind_a71ev2a_c1_scaffolds,BulkDock Fragalysis export,openbind_a71ev2a_c1_knitwork_impure,fragmenstein_placed

>  <distance_score>  (731) 
0.595512

>  <placement_batch>  (731) 
openbind_a71ev2a_c1_knitwork_impure

>  <name>  (731) 
C961-P444

>  <ref_mols>  (731) 
A0239a,A4712a

>  <smiles>  (731) 
O=C(NNC1=NCCS1)[C@@H]1CCCn2cnnc21

>  <HIPPO Compound ID>  (731) 
2081

>  <HIPPO Pose ID>  (731) 
479656

>  <ref_pdb>  (731) 
A4806a

$$$$
C1002-P444
     RDKit          3D

 20 22  0  0  0  0  0  0  0  0999 V2000
   30.3670    7.9924    1.0184 C   0  0  0  0  0  0  0  0  0  0  0  0
   30.1308    9.0836    1.4617 C   0  0  0  0  0  0  0  0  0  0  0  0
   29.8263   10.4148    2.0082 C   0  0  2  0  0  0  0  0  0  0  0  0
   28.4721   10.7643    1.6594 N   0  0  0  0  0  0  0  0  0  0  0  0
   27.5294   11.8441    2.2459 C   0  0  0  0  0  0  0  0  0  0  0  0
   27.7295   12.6666    3.0476 O   0  0  0  0  0  0  0  0  0  0  0  0
   26.1875   11.7093    1.5128 C   0  0  2  0  0  0  0  0  0  0  0  0
   26.3391   12.0272    0.0124 C   0  0  0  0  0  0  0  0  0  0  0  0
   25.0120   11.8295   -0.7194 C   0  0  0  0  0  0  0  0  0  0  0  0
   23.9136   12.5280   -0.0177 C   0  0  0  0  0  0  0  0  0  0  0  0
   22.7623   12.9324   -0.5037 N   0  0  0  0  0  0  0  0  0  0  0  0
   22.0787   13.5591    0.5118 N   0  0  0  0  0  0  0  0  0  0  0  0
   22.8262   13.5181    1.5966 C   0  0  0  0  0  0  0  0  0  0  0  0
   22.5033   14.1074    2.9069 C   0  0  0  0  0  0  0  0  0  0  0  0
   23.9850   12.8567    1.3073 N   0  0  0  0  0  0  0  0  0  0  0  0
   25.1472   12.6537    2.1485 C   0  0  0  0  0  0  0  0  0  0  0  0
   30.7261   11.4728    1.3770 C   0  0  0  0  0  0  0  0  0  0  0  0
   30.7634   12.8826    2.0374 C   0  0  0  0  0  0  0  0  0  0  0  0
   32.2651   12.9260    1.6940 C   0  0  0  0  0  0  0  0  0  0  0  0
   32.2408   11.3856    1.7303 C   0  0  0  0  0  0  0  0  0  0  0  0
  1  2  3  0
  3  2  1  6
  3  4  1  0
  4  5  1  0
  5  6  2  0
  7  5  1  1
  7  8  1  0
  8  9  1  0
  9 10  1  0
 10 11  2  0
 11 12  1  0
 12 13  2  0
 13 14  1  0
 13 15  1  0
 15 16  1  0
  3 17  1  0
 17 18  1  0
 18 19  1  0
 19 20  1  0
 16  7  1  0
 20 17  1  0
 15 10  1  0
M  END
>  <inchikey>  (732) 
JMSLYWOGHLUQQG-UHFFFAOYSA-N

>  <energy_score>  (732) 
-24.878054

>  <subsites>  (732) 
6 - A0486/A/147/1,1 - Active Site

>  <alias>  (732) 
C1002-P444

>  <tags>  (732) 
openbind_a71ev2a_c1_scaffolds,BulkDock Fragalysis export,openbind_a71ev2a_c1_knitwork_impure,fragmenstein_placed

>  <distance_score>  (732) 
0.416574

>  <placement_batch>  (732) 
openbind_a71ev2a_c1_knitwork_impure

>  <name>  (732) 
C1002-P444

>  <ref_mols>  (732) 
A0239a,A4712a

>  <smiles>  (732) 
C#C[C@H](NC(=O)[C@@H]1CCc2nnc(C)n2C1)C1CCC1

>  <HIPPO Compound ID>  (732) 
29673

>  <HIPPO Pose ID>  (732) 
479658

>  <ref_pdb>  (732) 
A4806a

$$$$
C4702-P226
     RDKit          3D

 11 11  0  0  0  0  0  0  0  0999 V2000
   10.3947   15.9004   19.9518 C   0  0  0  0  0  0  0  0  0  0  0  0
   10.7353   15.2608   21.0818 C   0  0  0  0  0  0  0  0  0  0  0  0
   12.0859   15.4416   21.7076 C   0  0  0  0  0  0  0  0  0  0  0  0
   11.9994   15.4844   23.2280 C   0  0  0  0  0  0  0  0  0  0  0  0
   11.1499   14.3400   23.7848 C   0  0  0  0  0  0  0  0  0  0  0  0
    9.8043   14.4024   23.2144 N   0  0  0  0  0  0  0  0  0  0  0  0
    8.7807   13.5529   23.8606 C   0  0  2  0  0  0  0  0  0  0  0  0
    8.4569   14.0808   25.2526 C   0  0  0  0  0  0  0  0  0  0  0  0
    9.1361   12.0716   23.9532 C   0  0  0  0  0  0  0  0  0  0  0  0
    8.7517   11.3303   24.8600 O   0  0  0  0  0  0  0  0  0  0  0  0
    9.8385   14.2567   21.7550 C   0  0  0  0  0  0  0  0  0  0  0  0
  1  2  2  0
  2  3  1  0
  3  4  1  0
  4  5  1  0
  5  6  1  0
  6  7  1  0
  7  8  1  1
  7  9  1  0
  9 10  2  0
  6 11  1  0
 11  2  1  0
M  END
>  <inchikey>  (733) 
JDXDXEWAEPMSSN-UHFFFAOYSA-N

>  <energy_score>  (733) 
-32.889879

>  <subsites>  (733) 
1 - Active Site

>  <alias>  (733) 
C4702-P226

>  <tags>  (733) 
openbind_a71ev2a_c1_scaffolds,BulkDock Fragalysis export,openbind_a71ev2a_c1_knitwork_impure,fragmenstein_placed

>  <distance_score>  (733) 
0.983892

>  <placement_batch>  (733) 
openbind_a71ev2a_c1_knitwork_impure

>  <name>  (733) 
C4702-P226

>  <ref_mols>  (733) 
A1775a,A3858b

>  <smiles>  (733) 
C=C1CCCN([C@H](C)C=O)C1

>  <HIPPO Compound ID>  (733) 
12270

>  <HIPPO Pose ID>  (733) 
480823

>  <ref_pdb>  (733) 
A0556a

$$$$
C1392-P493
     RDKit          3D

 17 17  0  0  0  0  0  0  0  0999 V2000
    9.7751   12.8415   23.7395 C   0  0  0  0  0  0  0  0  0  0  0  0
    9.1925   14.2557   23.5333 C   0  0  0  0  0  0  0  0  0  0  0  0
    8.0123   14.1785   22.5483 C   0  0  0  0  0  0  0  0  0  0  0  0
   10.3563   15.1818   22.9731 C   0  0  0  0  0  0  0  0  0  0  0  0
   10.7943   16.0461   23.6273 O   0  0  0  0  0  0  0  0  0  0  0  0
   10.7323   14.7153   21.5389 N   0  0  0  0  0  0  0  0  0  0  0  0
   11.6679   15.2836   20.5714 C   0  0  0  0  0  0  0  0  0  0  0  0
   11.1190   15.4482   19.1516 C   0  0  0  0  0  0  0  0  0  0  0  0
   10.6614   14.2716   18.6768 F   0  0  0  0  0  0  0  0  0  0  0  0
   10.1101   16.3422   19.1079 F   0  0  0  0  0  0  0  0  0  0  0  0
   12.0706   15.8513   18.2898 F   0  0  0  0  0  0  0  0  0  0  0  0
    8.7218   14.8256   24.9427 C   0  0  1  0  0  0  0  0  0  0  0  0
    8.1519   16.2682   24.8785 C   0  0  0  0  0  0  0  0  0  0  0  0
    6.7722   16.4142   25.5158 C   0  0  0  0  0  0  0  0  0  0  0  0
    5.8604   15.2673   25.1013 C   0  0  0  0  0  0  0  0  0  0  0  0
    6.3702   13.9565   25.4915 N   0  0  0  0  0  0  0  0  0  0  0  0
    7.7943   13.9193   25.7876 C   0  0  0  0  0  0  0  0  0  0  0  0
  1  2  1  0
  2  3  1  0
  2  4  1  0
  4  5  2  0
  4  6  1  0
  6  7  1  0
  7  8  1  0
  8  9  1  0
  8 10  1  0
  8 11  1  0
 12  2  1  6
 12 13  1  0
 13 14  1  0
 14 15  1  0
 15 16  1  0
 16 17  1  0
 17 12  1  0
M  END
>  <inchikey>  (734) 
ZJOXVMDCMBYBRX-UHFFFAOYSA-N

>  <energy_score>  (734) 
-8.488795

>  <subsites>  (734) 
1 - Active Site

>  <alias>  (734) 
C1392-P493

>  <tags>  (734) 
openbind_a71ev2a_c1_scaffolds,BulkDock Fragalysis export,openbind_a71ev2a_c1_knitwork_impure,fragmenstein_placed

>  <distance_score>  (734) 
0.824651

>  <placement_batch>  (734) 
openbind_a71ev2a_c1_knitwork_impure

>  <name>  (734) 
C1392-P493

>  <ref_mols>  (734) 
A1776a,A1778a,A4873b

>  <smiles>  (734) 
CC(C)(C(=O)NCC(F)(F)F)[C@H]1CCCNC1

>  <HIPPO Compound ID>  (734) 
1311

>  <HIPPO Pose ID>  (734) 
481181

>  <ref_pdb>  (734) 
A0556a

$$$$
C15044-P321
     RDKit          3D

 15 15  0  0  0  0  0  0  0  0999 V2000
   10.5926   15.2050   19.6160 N   0  0  0  0  0  0  0  0  0  0  0  0
   11.2839   15.5767   20.4669 C   0  0  0  0  0  0  0  0  0  0  0  0
   12.0857   16.0373   21.5986 C   0  0  0  0  0  0  0  0  0  0  0  0
   12.0023   15.0794   22.7883 C   0  0  0  0  0  0  0  0  0  0  0  0
   10.6516   15.0979   23.4948 C   0  0  0  0  0  0  0  0  0  0  0  0
    9.7041   14.2704   22.7509 N   0  0  0  0  0  0  0  0  0  0  0  0
    8.2873   13.8134   23.5324 S   0  0  0  0  0  0  0  0  0  0  0  0
    8.1254   14.6905   24.6691 O   0  0  0  0  0  0  0  0  0  0  0  0
    7.3093   13.6493   22.4768 O   0  0  0  0  0  0  0  0  0  0  0  0
    8.6006   12.1791   24.1508 C   0  0  0  0  0  0  0  0  0  0  0  0
    9.4610   11.3272   23.4861 C   0  0  0  0  0  0  0  0  0  0  0  0
    9.3609    9.9792   23.7880 C   0  0  0  0  0  0  0  0  0  0  0  0
    8.4250    9.5622   24.7277 C   0  0  0  0  0  0  0  0  0  0  0  0
    7.6533   10.5030   25.3858 C   0  0  0  0  0  0  0  0  0  0  0  0
    7.7304   11.8141   25.1301 N   0  0  0  0  0  0  0  0  0  0  0  0
  1  2  3  0
  2  3  1  0
  3  4  1  0
  4  5  1  0
  5  6  1  0
  6  7  1  0
  7  8  2  0
  7  9  2  0
  7 10  1  0
 10 11  2  0
 11 12  1  0
 12 13  2  0
 13 14  1  0
 14 15  2  0
 15 10  1  0
M  END
>  <inchikey>  (735) 
UWPFTRXOTWJPHV-UHFFFAOYSA-N

>  <energy_score>  (735) 
-33.773136

>  <subsites>  (735) 
1 - Active Site

>  <alias>  (735) 
C15044-P321

>  <tags>  (735) 
openbind_a71ev2a_c1_scaffolds,BulkDock Fragalysis export,openbind_a71ev2a_c1_knitwork_impure,fragmenstein_placed

>  <distance_score>  (735) 
0.900658

>  <placement_batch>  (735) 
openbind_a71ev2a_c1_knitwork_impure

>  <name>  (735) 
C15044-P321

>  <ref_mols>  (735) 
A4350a,A0719a

>  <smiles>  (735) 
N#CCCCNS(=O)(=O)c1ccccn1

>  <HIPPO Compound ID>  (735) 
14060

>  <HIPPO Pose ID>  (735) 
481467

>  <ref_pdb>  (735) 
A0556a

$$$$
C15048-P321
     RDKit          3D

 16 16  0  0  0  0  0  0  0  0999 V2000
    9.9356   15.0253   26.4119 C   0  0  0  0  0  0  0  0  0  0  0  0
    8.4665   14.7213   26.1396 C   0  0  0  0  0  0  0  0  0  0  0  0
    8.2775   14.0908   24.7332 C   0  0  2  0  0  0  0  0  0  0  0  0
    7.0827   14.7480   24.1367 N   0  0  0  0  0  0  0  0  0  0  0  0
    6.9172   14.5646   22.4817 S   0  0  0  0  0  0  0  0  0  0  0  0
    7.8760   15.4440   21.8642 O   0  0  0  0  0  0  0  0  0  0  0  0
    6.8920   13.1594   22.1679 O   0  0  0  0  0  0  0  0  0  0  0  0
    5.3623   15.1925   22.2474 N   0  0  0  0  0  0  0  0  0  0  0  0
    4.4075   15.0349   23.3682 C   0  0  0  0  0  0  0  0  0  0  0  0
    4.7399   14.7320   20.9824 C   0  0  0  0  0  0  0  0  0  0  0  0
    8.2015   12.5642   24.8072 C   0  0  0  0  0  0  0  0  0  0  0  0
    7.2055   11.9193   25.5510 C   0  0  0  0  0  0  0  0  0  0  0  0
    7.1771   10.5321   25.5954 C   0  0  0  0  0  0  0  0  0  0  0  0
    8.0533    9.7412   24.9476 N   0  0  0  0  0  0  0  0  0  0  0  0
    8.9840   10.3659   24.1935 C   0  0  0  0  0  0  0  0  0  0  0  0
    9.1037   11.7509   24.1027 C   0  0  0  0  0  0  0  0  0  0  0  0
  1  2  1  0
  3  2  1  1
  3  4  1  0
  4  5  1  0
  5  6  2  0
  5  7  2  0
  5  8  1  0
  8  9  1  0
  8 10  1  0
  3 11  1  0
 11 12  2  0
 12 13  1  0
 13 14  2  0
 14 15  1  0
 15 16  2  0
 16 11  1  0
M  END
>  <inchikey>  (736) 
KRMYACDXSNMVGI-UHFFFAOYSA-N

>  <energy_score>  (736) 
-28.892386

>  <subsites>  (736) 
1 - Active Site

>  <alias>  (736) 
C15048-P321

>  <tags>  (736) 
openbind_a71ev2a_c1_scaffolds,BulkDock Fragalysis export,openbind_a71ev2a_c1_knitwork_impure,fragmenstein_placed

>  <distance_score>  (736) 
0.814307

>  <placement_batch>  (736) 
openbind_a71ev2a_c1_knitwork_impure

>  <name>  (736) 
C15048-P321

>  <ref_mols>  (736) 
A4350a,A0719a

>  <smiles>  (736) 
CC[C@H](NS(=O)(=O)N(C)C)c1ccncc1

>  <HIPPO Compound ID>  (736) 
1526

>  <HIPPO Pose ID>  (736) 
481468

>  <ref_pdb>  (736) 
A0556a

$$$$
C8153-P321
     RDKit          3D

 15 15  0  0  0  0  0  0  0  0999 V2000
   11.9024   15.3776   20.2921 C   0  0  0  0  0  0  0  0  0  0  0  0
   11.8341   15.9939   21.4783 C   0  0  0  0  0  0  0  0  0  0  0  0
   11.8897   15.2764   22.7871 C   0  0  0  0  0  0  0  0  0  0  0  0
   10.5110   15.2225   23.4444 C   0  0  0  0  0  0  0  0  0  0  0  0
    9.5152   14.3524   22.6613 C   0  0  1  0  0  0  0  0  0  0  0  0
    8.7501   15.1327   21.5860 C   0  0  0  0  0  0  0  0  0  0  0  0
   10.1894   13.2315   22.0951 O   0  0  0  0  0  0  0  0  0  0  0  0
    8.4985   13.6920   23.5919 C   0  0  0  0  0  0  0  0  0  0  0  0
    7.2954   13.9627   23.5178 O   0  0  0  0  0  0  0  0  0  0  0  0
    9.0175   12.6055   24.5716 C   0  0  2  0  0  0  0  0  0  0  0  0
    9.0787   11.2689   23.8275 C   0  0  0  0  0  0  0  0  0  0  0  0
    8.5682   10.0412   24.5520 C   0  0  0  0  0  0  0  0  0  0  0  0
    7.4117   10.2958   25.5040 C   0  0  0  0  0  0  0  0  0  0  0  0
    7.0029   11.7496   25.6207 C   0  0  0  0  0  0  0  0  0  0  0  0
    8.1673   12.6069   25.7812 N   0  0  0  0  0  0  0  0  0  0  0  0
  1  2  2  0
  2  3  1  0
  3  4  1  0
  4  5  1  0
  5  6  1  6
  5  7  1  0
  5  8  1  0
  8  9  2  0
 10  8  1  6
 10 11  1  0
 11 12  1  0
 12 13  1  0
 13 14  1  0
 14 15  1  0
 15 10  1  0
M  END
>  <inchikey>  (737) 
CPIBTNTZBHUDNS-UHFFFAOYSA-N

>  <energy_score>  (737) 
-16.082013

>  <subsites>  (737) 
1 - Active Site

>  <alias>  (737) 
C8153-P321

>  <tags>  (737) 
openbind_a71ev2a_c1_scaffolds,BulkDock Fragalysis export,openbind_a71ev2a_c1_knitwork_impure,fragmenstein_placed

>  <distance_score>  (737) 
0.856578

>  <placement_batch>  (737) 
openbind_a71ev2a_c1_knitwork_impure

>  <name>  (737) 
C8153-P321

>  <ref_mols>  (737) 
A4350a,A0719a

>  <smiles>  (737) 
C=CCC[C@@](C)(O)C(=O)[C@@H]1CCCCN1

>  <HIPPO Compound ID>  (737) 
6123

>  <HIPPO Pose ID>  (737) 
481489

>  <ref_pdb>  (737) 
A0556a

$$$$
C8169-P321
     RDKit          3D

 14 14  0  0  0  0  0  0  0  0999 V2000
    7.6692   14.7672   24.3778 O   0  0  0  0  0  0  0  0  0  0  0  0
    8.2065   13.8143   23.4432 S   0  0  0  0  0  0  0  0  0  0  0  0
    7.4049   13.1638   22.4360 O   0  0  0  0  0  0  0  0  0  0  0  0
    9.4882   14.5187   22.6767 N   0  0  0  0  0  0  0  0  0  0  0  0
   10.4703   15.2691   23.4568 C   0  0  0  0  0  0  0  0  0  0  0  0
   11.8302   15.1474   22.7728 C   0  0  0  0  0  0  0  0  0  0  0  0
   11.9791   16.0267   21.5355 C   0  0  0  0  0  0  0  0  0  0  0  0
   10.9324   15.5154   20.1927 Cl  0  0  0  0  0  0  0  0  0  0  0  0
    8.9763   12.6494   24.3389 N   0  0  0  0  0  0  0  0  0  0  0  0
    8.2111   12.0595   25.4391 C   0  0  0  0  0  0  0  0  0  0  0  0
    7.4984   10.8128   25.0073 C   0  0  0  0  0  0  0  0  0  0  0  0
    8.5009    9.7907   24.5296 C   0  0  0  0  0  0  0  0  0  0  0  0
    9.4908   10.3285   23.5221 C   0  0  0  0  0  0  0  0  0  0  0  0
    9.9507   11.7668   23.6963 C   0  0  0  0  0  0  0  0  0  0  0  0
  1  2  2  0
  2  3  2  0
  2  4  1  0
  4  5  1  0
  5  6  1  0
  6  7  1  0
  7  8  1  0
  2  9  1  0
  9 10  1  0
 10 11  1  0
 11 12  1  0
 12 13  1  0
 13 14  1  0
 14  9  1  0
M  END
>  <inchikey>  (738) 
VPRZTSOJFRBNDG-UHFFFAOYSA-N

>  <energy_score>  (738) 
-82.354082

>  <subsites>  (738) 
1 - Active Site

>  <alias>  (738) 
C8169-P321

>  <tags>  (738) 
openbind_a71ev2a_c1_scaffolds,BulkDock Fragalysis export,openbind_a71ev2a_c1_knitwork_impure,fragmenstein_placed

>  <distance_score>  (738) 
0.986456

>  <placement_batch>  (738) 
openbind_a71ev2a_c1_knitwork_impure

>  <name>  (738) 
C8169-P321

>  <ref_mols>  (738) 
A4350a,A0719a

>  <smiles>  (738) 
O=S(=O)(NCCCCl)N1CCCCC1

>  <HIPPO Compound ID>  (738) 
29675

>  <HIPPO Pose ID>  (738) 
481498

>  <ref_pdb>  (738) 
A0556a

$$$$
C13035-P152
     RDKit          3D

 18 19  0  0  0  0  0  0  0  0999 V2000
    3.7944   12.1350   30.0427 C   0  0  0  0  0  0  0  0  0  0  0  0
    3.2246   10.8361   29.4737 C   0  0  2  0  0  0  0  0  0  0  0  0
    3.2997   10.8433   27.9467 C   0  0  0  0  0  0  0  0  0  0  0  0
    4.6196   10.2808   27.4399 C   0  0  0  0  0  0  0  0  0  0  0  0
    4.8403    9.1362   27.4505 O   0  0  0  0  0  0  0  0  0  0  0  0
    5.4530   11.4565   26.8814 N   0  0  0  0  0  0  0  0  0  0  0  0
    6.6133   11.4583   26.1798 C   0  0  0  0  0  0  0  0  0  0  0  0
    7.3369   10.3304   25.6854 C   0  0  0  0  0  0  0  0  0  0  0  0
    8.2867   10.8889   24.8754 C   0  0  0  0  0  0  0  0  0  0  0  0
    8.1009   12.2256   24.9618 N   0  0  0  0  0  0  0  0  0  0  0  0
    7.1514   12.6256   25.7960 N   0  0  0  0  0  0  0  0  0  0  0  0
    8.9156   13.0151   24.0633 C   0  0  0  0  0  0  0  0  0  0  0  0
    9.9679   11.9769   23.6413 C   0  0  0  0  0  0  0  0  0  0  0  0
    9.3475   10.5736   23.9056 C   0  0  0  0  0  0  0  0  0  0  0  0
    1.7768   10.6487   29.8967 C   0  0  0  0  0  0  0  0  0  0  0  0
    1.6442   10.6701   31.2387 F   0  0  0  0  0  0  0  0  0  0  0  0
    1.2885    9.4676   29.4576 F   0  0  0  0  0  0  0  0  0  0  0  0
    0.9927   11.6234   29.3855 F   0  0  0  0  0  0  0  0  0  0  0  0
  2  1  1  6
  2  3  1  0
  3  4  1  0
  4  5  2  0
  4  6  1  0
  6  7  1  0
  7  8  1  0
  8  9  2  0
  9 10  1  0
 10 11  1  0
 10 12  1  0
 12 13  1  0
 13 14  1  0
  2 15  1  0
 15 16  1  0
 15 17  1  0
 15 18  1  0
 11  7  2  0
 14  9  1  0
M  END
>  <inchikey>  (739) 
JKCAOPGWMBQAQI-UHFFFAOYSA-N

>  <energy_score>  (739) 
-40.751248

>  <subsites>  (739) 
1 - Active Site

>  <alias>  (739) 
C13035-P152

>  <tags>  (739) 
openbind_a71ev2a_c1_scaffolds,BulkDock Fragalysis export,openbind_a71ev2a_c1_knitwork_impure,fragmenstein_placed

>  <distance_score>  (739) 
0.972637

>  <placement_batch>  (739) 
openbind_a71ev2a_c1_knitwork_impure

>  <name>  (739) 
C13035-P152

>  <ref_mols>  (739) 
A1445a,A3201a

>  <smiles>  (739) 
C[C@H](CC(=O)Nc1cc2n(n1)CCC2)C(F)(F)F

>  <HIPPO Compound ID>  (739) 
6021

>  <HIPPO Pose ID>  (739) 
481725

>  <ref_pdb>  (739) 
A0556a

$$$$
C7182-P152
     RDKit          3D

 22 23  0  0  0  0  0  0  0  0999 V2000
    9.3928    9.8370   23.6820 C   0  0  0  0  0  0  0  0  0  0  0  0
    8.4551   10.4846   24.6313 C   0  0  0  0  0  0  0  0  0  0  0  0
    7.5248    9.9118   25.4708 C   0  0  0  0  0  0  0  0  0  0  0  0
    6.8522   10.9818   26.0867 C   0  0  0  0  0  0  0  0  0  0  0  0
    5.7050   10.8444   26.8097 N   0  0  0  0  0  0  0  0  0  0  0  0
    4.8430   11.9071   27.5447 C   0  0  0  0  0  0  0  0  0  0  0  0
    5.0259   13.0497   27.7076 O   0  0  0  0  0  0  0  0  0  0  0  0
    3.5451   11.2263   27.9868 C   0  0  0  0  0  0  0  0  0  0  0  0
    3.3440   11.1215   29.5027 C   0  0  1  0  0  0  0  0  0  0  0  0
    3.5134   12.4618   30.2169 C   0  0  0  0  0  0  0  0  0  0  0  0
    1.9454   10.5788   29.7746 C   0  0  0  0  0  0  0  0  0  0  0  0
    1.7147   10.4345   31.0965 F   0  0  0  0  0  0  0  0  0  0  0  0
    1.7751    9.3653   29.2009 F   0  0  0  0  0  0  0  0  0  0  0  0
    0.9899   11.3922   29.2749 F   0  0  0  0  0  0  0  0  0  0  0  0
    7.4332   12.1416   25.7929 N   0  0  0  0  0  0  0  0  0  0  0  0
    8.3054   11.8410   24.8068 N   0  0  0  0  0  0  0  0  0  0  0  0
    8.9337   12.9046   24.0265 C   0  0  0  0  0  0  0  0  0  0  0  0
   10.3494   13.2104   24.5304 C   0  0  0  0  0  0  0  0  0  0  0  0
   11.0385   14.2479   23.6481 C   0  0  0  0  0  0  0  0  0  0  0  0
   10.2057   15.5187   23.5239 C   0  0  0  0  0  0  0  0  0  0  0  0
    8.7846   15.2299   23.0461 C   0  0  0  0  0  0  0  0  0  0  0  0
    8.0953   14.1913   23.9299 C   0  0  0  0  0  0  0  0  0  0  0  0
  1  2  1  0
  2  3  2  0
  3  4  1  0
  4  5  1  0
  5  6  1  0
  6  7  2  0
  6  8  1  0
  8  9  1  0
  9 10  1  1
  9 11  1  0
 11 12  1  0
 11 13  1  0
 11 14  1  0
  4 15  2  0
 15 16  1  0
 16 17  1  0
 17 18  1  0
 18 19  1  0
 19 20  1  0
 20 21  1  0
 21 22  1  0
 16  2  1  0
 22 17  1  0
M  END
>  <inchikey>  (740) 
PSPORJXVCMZQLN-UHFFFAOYSA-N

>  <energy_score>  (740) 
-10.452722

>  <subsites>  (740) 
1 - Active Site

>  <alias>  (740) 
C7182-P152

>  <tags>  (740) 
openbind_a71ev2a_c1_scaffolds,BulkDock Fragalysis export,openbind_a71ev2a_c1_knitwork_impure,fragmenstein_placed

>  <distance_score>  (740) 
0.960516

>  <placement_batch>  (740) 
openbind_a71ev2a_c1_knitwork_impure

>  <name>  (740) 
C7182-P152

>  <ref_mols>  (740) 
A1445a,A3201a

>  <smiles>  (740) 
Cc1cc(NC(=O)C[C@@H](C)C(F)(F)F)nn1C1CCCCC1

>  <HIPPO Compound ID>  (740) 
33613

>  <HIPPO Pose ID>  (740) 
481768

>  <ref_pdb>  (740) 
A0556a

$$$$
C16242-P168
     RDKit          3D

 20 21  0  0  0  0  0  0  0  0999 V2000
   12.6790   13.6566   23.8455 C   0  0  0  0  0  0  0  0  0  0  0  0
   12.5469   13.3764   22.4626 O   0  0  0  0  0  0  0  0  0  0  0  0
   12.7932   14.4954   21.5939 C   0  0  0  0  0  0  0  0  0  0  0  0
   11.5130   15.0200   21.0810 C   0  0  0  0  0  0  0  0  0  0  0  0
   11.2069   15.2430   19.8199 N   0  0  0  0  0  0  0  0  0  0  0  0
    9.9179   15.7411   19.7546 C   0  0  0  0  0  0  0  0  0  0  0  0
    9.2785   15.8546   20.9716 C   0  0  0  0  0  0  0  0  0  0  0  0
    7.9549   16.3726   21.3422 C   0  0  0  0  0  0  0  0  0  0  0  0
    7.0118   15.3070   21.5808 O   0  0  0  0  0  0  0  0  0  0  0  0
    7.2292   14.3335   22.4838 C   0  0  0  0  0  0  0  0  0  0  0  0
    7.1353   13.1685   22.1120 O   0  0  0  0  0  0  0  0  0  0  0  0
    7.4708   14.7273   23.9431 C   0  0  0  0  0  0  0  0  0  0  0  0
    8.6281   14.1622   24.5664 O   0  0  0  0  0  0  0  0  0  0  0  0
    8.5381   12.7930   24.6542 C   0  0  0  0  0  0  0  0  0  0  0  0
    9.3689   12.0202   23.8556 C   0  0  0  0  0  0  0  0  0  0  0  0
    9.2590   10.6373   23.9338 C   0  0  0  0  0  0  0  0  0  0  0  0
    8.3458   10.0818   24.8190 C   0  0  0  0  0  0  0  0  0  0  0  0
    7.5917   10.9394   25.6059 C   0  0  0  0  0  0  0  0  0  0  0  0
    7.6858   12.2881   25.5670 N   0  0  0  0  0  0  0  0  0  0  0  0
   10.3295   15.4184   22.2068 S   0  0  0  0  0  0  0  0  0  0  0  0
  1  2  1  0
  2  3  1  0
  3  4  1  0
  4  5  2  0
  5  6  1  0
  6  7  2  0
  7  8  1  0
  8  9  1  0
  9 10  1  0
 10 11  2  0
 10 12  1  0
 12 13  1  0
 13 14  1  0
 14 15  2  0
 15 16  1  0
 16 17  2  0
 17 18  1  0
 18 19  2  0
  7 20  1  0
 20  4  1  0
 19 14  1  0
M  END
>  <inchikey>  (741) 
KAWBAAHMUIIUOI-UHFFFAOYSA-N

>  <energy_score>  (741) 
-49.033967

>  <subsites>  (741) 
1 - Active Site

>  <alias>  (741) 
C16242-P168

>  <tags>  (741) 
openbind_a71ev2a_c1_scaffolds,BulkDock Fragalysis export,openbind_a71ev2a_c1_knitwork_impure,fragmenstein_placed

>  <distance_score>  (741) 
0.957262

>  <placement_batch>  (741) 
openbind_a71ev2a_c1_knitwork_impure

>  <name>  (741) 
C16242-P168

>  <ref_mols>  (741) 
A3306a,A3623a

>  <smiles>  (741) 
COCc1ncc(COC(=O)COc2ccccn2)s1

>  <HIPPO Compound ID>  (741) 
29655

>  <HIPPO Pose ID>  (741) 
481980

>  <ref_pdb>  (741) 
A0556a

$$$$
C8840-P439
     RDKit          3D

 15 17  0  0  0  0  0  0  0  0999 V2000
    5.9968   12.4976   26.8749 C   0  0  0  0  0  0  0  0  0  0  0  0
    5.9855   13.8059   26.3707 C   0  0  0  0  0  0  0  0  0  0  0  0
    6.7926   14.1563   25.2862 C   0  0  0  0  0  0  0  0  0  0  0  0
    7.6421   13.1980   24.7518 C   0  0  0  0  0  0  0  0  0  0  0  0
    7.6825   11.9051   25.2861 C   0  0  0  0  0  0  0  0  0  0  0  0
    6.8414   11.5346   26.3206 C   0  0  0  0  0  0  0  0  0  0  0  0
    8.6952   11.0593   24.5847 C   0  0  0  0  0  0  0  0  0  0  0  0
    9.4971   12.1172   23.8161 C   0  0  0  0  0  0  0  0  0  0  0  0
    8.5368   13.3029   23.5366 C   0  0  2  0  0  0  0  0  0  0  0  0
    9.0698   14.6505   23.3480 N   0  0  0  0  0  0  0  0  0  0  0  0
   10.4519   14.8883   23.7420 C   0  0  0  0  0  0  0  0  0  0  0  0
   11.4850   14.4690   22.7004 C   0  0  0  0  0  0  0  0  0  0  0  0
   11.1878   15.1056   21.3518 C   0  0  0  0  0  0  0  0  0  0  0  0
    9.7499   14.8241   20.9406 C   0  0  0  0  0  0  0  0  0  0  0  0
    8.7674   15.2361   22.0321 C   0  0  0  0  0  0  0  0  0  0  0  0
  1  2  2  0
  2  3  1  0
  3  4  2  0
  4  5  1  0
  5  6  2  0
  5  7  1  0
  7  8  1  0
  8  9  1  0
  9 10  1  1
 10 11  1  0
 11 12  1  0
 12 13  1  0
 13 14  1  0
 14 15  1  0
  6  1  1  0
 15 10  1  0
  9  4  1  0
M  END
>  <inchikey>  (742) 
BTBDFXKRKUXPIR-UHFFFAOYSA-N

>  <energy_score>  (742) 
-38.329349

>  <subsites>  (742) 
1 - Active Site

>  <alias>  (742) 
C8840-P439

>  <tags>  (742) 
openbind_a71ev2a_c1_scaffolds,BulkDock Fragalysis export,openbind_a71ev2a_c1_knitwork_impure,fragmenstein_placed

>  <distance_score>  (742) 
0.848115

>  <placement_batch>  (742) 
openbind_a71ev2a_c1_knitwork_impure

>  <name>  (742) 
C8840-P439

>  <ref_mols>  (742) 
A1778a,A4706a

>  <smiles>  (742) 
c1ccc2c(c1)CC[C@@H]2N1CCCCC1

>  <HIPPO Compound ID>  (742) 
11209

>  <HIPPO Pose ID>  (742) 
482653

>  <ref_pdb>  (742) 
A0556a

$$$$
C8854-P439
     RDKit          3D

 16 18  0  0  0  0  0  0  0  0999 V2000
    5.7788   12.8205   26.8440 C   0  0  0  0  0  0  0  0  0  0  0  0
    5.9286   14.0234   26.1659 C   0  0  0  0  0  0  0  0  0  0  0  0
    6.8552   14.1307   25.1265 C   0  0  0  0  0  0  0  0  0  0  0  0
    7.6909   13.0536   24.7766 C   0  0  0  0  0  0  0  0  0  0  0  0
    7.5496   11.8486   25.4895 C   0  0  0  0  0  0  0  0  0  0  0  0
    6.5805   11.7375   26.5006 C   0  0  0  0  0  0  0  0  0  0  0  0
    8.4916   10.6961   25.2913 C   0  0  0  0  0  0  0  0  0  0  0  0
    9.2393   10.6969   23.9795 C   0  0  0  0  0  0  0  0  0  0  0  0
    9.7560   12.0847   23.6449 C   0  0  0  0  0  0  0  0  0  0  0  0
    8.6372   13.1485   23.5739 C   0  0  2  0  0  0  0  0  0  0  0  0
    9.0992   14.5318   23.3545 N   0  0  0  0  0  0  0  0  0  0  0  0
   10.4640   14.8708   23.7388 C   0  0  0  0  0  0  0  0  0  0  0  0
   11.5187   14.6150   22.6632 C   0  0  0  0  0  0  0  0  0  0  0  0
   11.1258   15.2580   21.3445 C   0  0  0  0  0  0  0  0  0  0  0  0
    9.7216   14.8339   20.9449 C   0  0  0  0  0  0  0  0  0  0  0  0
    8.7190   15.1124   22.0587 C   0  0  0  0  0  0  0  0  0  0  0  0
  1  2  2  0
  2  3  1  0
  3  4  2  0
  4  5  1  0
  5  6  2  0
  5  7  1  0
  7  8  1  0
  8  9  1  0
  9 10  1  0
 10 11  1  1
 11 12  1  0
 12 13  1  0
 13 14  1  0
 14 15  1  0
 15 16  1  0
  6  1  1  0
 16 11  1  0
 10  4  1  0
M  END
>  <inchikey>  (743) 
LUVPXWSUDOENCR-UHFFFAOYSA-N

>  <energy_score>  (743) 
-35.883405

>  <subsites>  (743) 
1 - Active Site

>  <alias>  (743) 
C8854-P439

>  <tags>  (743) 
openbind_a71ev2a_c1_scaffolds,BulkDock Fragalysis export,openbind_a71ev2a_c1_knitwork_impure,fragmenstein_placed

>  <distance_score>  (743) 
0.996449

>  <placement_batch>  (743) 
openbind_a71ev2a_c1_knitwork_impure

>  <name>  (743) 
C8854-P439

>  <ref_mols>  (743) 
A1778a,A4706a

>  <smiles>  (743) 
c1ccc2c(c1)CCC[C@@H]2N1CCCCC1

>  <HIPPO Compound ID>  (743) 
21032

>  <HIPPO Pose ID>  (743) 
482655

>  <ref_pdb>  (743) 
A0556a

$$$$
C2188-P174
     RDKit          3D

 14 16  0  0  0  0  0  0  0  0999 V2000
    4.5802   14.6934   27.7909 C   0  0  0  0  0  0  0  0  0  0  0  0
    5.5107   13.7716   27.8814 N   0  0  0  0  0  0  0  0  0  0  0  0
    5.8020   13.4052   26.5801 C   0  0  0  0  0  0  0  0  0  0  0  0
    6.8576   12.3695   26.3111 C   0  0  1  0  0  0  0  0  0  0  0  0
    6.2156   11.0011   26.0201 C   0  0  0  0  0  0  0  0  0  0  0  0
    7.2165    9.9562   25.5404 C   0  0  0  0  0  0  0  0  0  0  0  0
    8.0478   10.3643   24.3284 C   0  0  0  0  0  0  0  0  0  0  0  0
    8.4713   11.7953   24.3864 C   0  0  0  0  0  0  0  0  0  0  0  0
    9.4866   12.3913   23.5780 C   0  0  0  0  0  0  0  0  0  0  0  0
    9.6213   13.7378   23.8240 C   0  0  0  0  0  0  0  0  0  0  0  0
    8.5509   14.2736   25.0440 S   0  0  0  0  0  0  0  0  0  0  0  0
    7.8867   12.7124   25.2461 C   0  0  0  0  0  0  0  0  0  0  0  0
    4.9779   14.0915   25.7108 C   0  0  0  0  0  0  0  0  0  0  0  0
    4.2222   14.9209   26.4933 N   0  0  0  0  0  0  0  0  0  0  0  0
  1  2  2  0
  2  3  1  0
  4  3  1  6
  4  5  1  0
  5  6  1  0
  6  7  1  0
  7  8  1  0
  8  9  1  0
  9 10  2  0
 10 11  1  0
 11 12  1  0
  3 13  2  0
 13 14  1  0
 14  1  1  0
 12  4  1  0
 12  8  2  0
M  END
>  <inchikey>  (744) 
SPUMQZRDWYQOSZ-UHFFFAOYSA-N

>  <energy_score>  (744) 
-33.973655

>  <subsites>  (744) 
1 - Active Site

>  <alias>  (744) 
C2188-P174

>  <tags>  (744) 
openbind_a71ev2a_c1_scaffolds,BulkDock Fragalysis export,openbind_a71ev2a_c1_knitwork_impure,fragmenstein_placed

>  <distance_score>  (744) 
0.755556

>  <placement_batch>  (744) 
openbind_a71ev2a_c1_knitwork_impure

>  <name>  (744) 
C2188-P174

>  <ref_mols>  (744) 
A1778a,A3371a

>  <smiles>  (744) 
c1nc([C@H]2CCCc3ccsc32)c[nH]1

>  <HIPPO Compound ID>  (744) 
29667

>  <HIPPO Pose ID>  (744) 
482695

>  <ref_pdb>  (744) 
A0556a

$$$$
C15025-P275
     RDKit          3D

 12 12  0  0  0  0  0  0  0  0999 V2000
   10.6996   14.7535   22.8679 C   0  0  0  0  0  0  0  0  0  0  0  0
    9.2151   14.6765   22.5599 C   0  0  0  0  0  0  0  0  0  0  0  0
    8.4788   13.5582   23.2306 N   0  0  0  0  0  0  0  0  0  0  0  0
    8.7936   13.3613   24.8768 S   0  0  0  0  0  0  0  0  0  0  0  0
    8.3239   14.5693   25.5196 O   0  0  0  0  0  0  0  0  0  0  0  0
   10.1494   12.8974   25.0485 O   0  0  0  0  0  0  0  0  0  0  0  0
    7.7357   12.0532   25.3694 C   0  0  0  0  0  0  0  0  0  0  0  0
    6.6803   12.2906   26.2490 C   0  0  0  0  0  0  0  0  0  0  0  0
    5.9445   11.2128   26.7245 C   0  0  0  0  0  0  0  0  0  0  0  0
    6.2955    9.9436   26.2998 C   0  0  0  0  0  0  0  0  0  0  0  0
    7.3183    9.6868   25.4521 N   0  0  0  0  0  0  0  0  0  0  0  0
    8.0305   10.7524   25.0048 C   0  0  0  0  0  0  0  0  0  0  0  0
  1  2  1  0
  2  3  1  0
  3  4  1  0
  4  5  2  0
  4  6  2  0
  4  7  1  0
  7  8  2  0
  8  9  1  0
  9 10  2  0
 10 11  1  0
 11 12  2  0
 12  7  1  0
M  END
>  <inchikey>  (745) 
MUQXCGYUEZQXBU-UHFFFAOYSA-N

>  <energy_score>  (745) 
-15.83715

>  <subsites>  (745) 
1 - Active Site

>  <alias>  (745) 
C15025-P275

>  <tags>  (745) 
openbind_a71ev2a_c1_scaffolds,BulkDock Fragalysis export,openbind_a71ev2a_c1_knitwork_impure,fragmenstein_placed

>  <distance_score>  (745) 
0.815813

>  <placement_batch>  (745) 
openbind_a71ev2a_c1_knitwork_impure

>  <name>  (745) 
C15025-P275

>  <ref_mols>  (745) 
A4031b,A0719a

>  <smiles>  (745) 
CCNS(=O)(=O)c1cccnc1

>  <HIPPO Compound ID>  (745) 
3817

>  <HIPPO Pose ID>  (745) 
482829

>  <ref_pdb>  (745) 
A0556a

$$$$
C15036-P275
     RDKit          3D

 14 14  0  0  0  0  0  0  0  0999 V2000
   12.2899   16.2107   21.5707 N   0  0  0  0  0  0  0  0  0  0  0  0
   11.7088   15.4841   22.2586 C   0  0  0  0  0  0  0  0  0  0  0  0
   10.9436   14.5854   23.1116 C   0  0  0  0  0  0  0  0  0  0  0  0
    9.5646   14.3031   22.5047 C   0  0  0  0  0  0  0  0  0  0  0  0
    8.8784   13.1165   23.1407 N   0  0  0  0  0  0  0  0  0  0  0  0
    8.7502   13.2482   24.8225 S   0  0  0  0  0  0  0  0  0  0  0  0
   10.0703   12.9311   25.3135 O   0  0  0  0  0  0  0  0  0  0  0  0
    8.1372   14.5231   25.1143 O   0  0  0  0  0  0  0  0  0  0  0  0
    7.6835   11.9702   25.3436 C   0  0  0  0  0  0  0  0  0  0  0  0
    6.6084   12.2544   26.1830 C   0  0  0  0  0  0  0  0  0  0  0  0
    5.8612   11.2030   26.6984 C   0  0  0  0  0  0  0  0  0  0  0  0
    6.2175    9.9128   26.3472 C   0  0  0  0  0  0  0  0  0  0  0  0
    7.2583    9.6113   25.5361 N   0  0  0  0  0  0  0  0  0  0  0  0
    7.9809   10.6516   25.0538 C   0  0  0  0  0  0  0  0  0  0  0  0
  1  2  3  0
  2  3  1  0
  3  4  1  0
  4  5  1  0
  5  6  1  0
  6  7  2  0
  6  8  2  0
  6  9  1  0
  9 10  2  0
 10 11  1  0
 11 12  2  0
 12 13  1  0
 13 14  2  0
 14  9  1  0
M  END
>  <inchikey>  (746) 
BRFFIYADVJLQLC-UHFFFAOYSA-N

>  <energy_score>  (746) 
-23.781917

>  <subsites>  (746) 
1 - Active Site

>  <alias>  (746) 
C15036-P275

>  <tags>  (746) 
openbind_a71ev2a_c1_scaffolds,BulkDock Fragalysis export,openbind_a71ev2a_c1_knitwork_impure,fragmenstein_placed

>  <distance_score>  (746) 
0.884339

>  <placement_batch>  (746) 
openbind_a71ev2a_c1_knitwork_impure

>  <name>  (746) 
C15036-P275

>  <ref_mols>  (746) 
A4031b,A0719a

>  <smiles>  (746) 
N#CCCNS(=O)(=O)c1cccnc1

>  <HIPPO Compound ID>  (746) 
8878

>  <HIPPO Pose ID>  (746) 
482837

>  <ref_pdb>  (746) 
A0556a

$$$$
C15048-P275
     RDKit          3D

 16 16  0  0  0  0  0  0  0  0999 V2000
    7.1836   16.0131   26.5930 C   0  0  0  0  0  0  0  0  0  0  0  0
    7.5847   14.5428   26.5520 C   0  0  0  0  0  0  0  0  0  0  0  0
    7.2097   13.8463   25.2205 C   0  0  1  0  0  0  0  0  0  0  0  0
    7.9972   14.4980   24.1677 N   0  0  0  0  0  0  0  0  0  0  0  0
    7.5631   14.4702   22.5653 S   0  0  0  0  0  0  0  0  0  0  0  0
    8.6314   15.1589   21.8841 O   0  0  0  0  0  0  0  0  0  0  0  0
    7.2028   13.1266   22.1959 O   0  0  0  0  0  0  0  0  0  0  0  0
    6.2170   15.4278   22.5298 N   0  0  0  0  0  0  0  0  0  0  0  0
    4.8795   14.8564   22.6694 C   0  0  0  0  0  0  0  0  0  0  0  0
    6.3706   16.8050   22.9872 C   0  0  0  0  0  0  0  0  0  0  0  0
    7.3801   12.3384   25.3694 C   0  0  0  0  0  0  0  0  0  0  0  0
    8.3350   11.5983   24.6671 C   0  0  0  0  0  0  0  0  0  0  0  0
    8.3376   10.2152   24.7880 C   0  0  0  0  0  0  0  0  0  0  0  0
    7.4946    9.5250   25.5865 N   0  0  0  0  0  0  0  0  0  0  0  0
    6.5923   10.2441   26.2771 C   0  0  0  0  0  0  0  0  0  0  0  0
    6.4989   11.6252   26.2035 C   0  0  0  0  0  0  0  0  0  0  0  0
  1  2  1  0
  3  2  1  1
  3  4  1  0
  4  5  1  0
  5  6  2  0
  5  7  2  0
  5  8  1  0
  8  9  1  0
  8 10  1  0
  3 11  1  0
 11 12  2  0
 12 13  1  0
 13 14  2  0
 14 15  1  0
 15 16  2  0
 16 11  1  0
M  END
>  <inchikey>  (747) 
JEOYIGKKGPMNOF-UHFFFAOYSA-N

>  <energy_score>  (747) 
-33.830071

>  <subsites>  (747) 
1 - Active Site

>  <alias>  (747) 
C15048-P275

>  <tags>  (747) 
openbind_a71ev2a_c1_scaffolds,BulkDock Fragalysis export,openbind_a71ev2a_c1_knitwork_impure,fragmenstein_placed

>  <distance_score>  (747) 
0.795943

>  <placement_batch>  (747) 
openbind_a71ev2a_c1_knitwork_impure

>  <name>  (747) 
C15048-P275

>  <ref_mols>  (747) 
A4031b,A0719a

>  <smiles>  (747) 
CC[C@@H](NS(=O)(=O)N(C)C)c1ccncc1

>  <HIPPO Compound ID>  (747) 
4256

>  <HIPPO Pose ID>  (747) 
482845

>  <ref_pdb>  (747) 
A0556a

$$$$
C15065-P275
     RDKit          3D

 13 13  0  0  0  0  0  0  0  0999 V2000
   11.9340   15.1676   22.9915 C   0  0  0  0  0  0  0  0  0  0  0  0
   10.9710   14.3072   23.5897 O   0  0  0  0  0  0  0  0  0  0  0  0
    9.7136   14.3966   22.9144 C   0  0  0  0  0  0  0  0  0  0  0  0
    8.8329   13.2065   23.3050 C   0  0  2  0  0  0  0  0  0  0  0  0
    7.6716   13.1414   22.4638 O   0  0  0  0  0  0  0  0  0  0  0  0
    8.3385   13.2932   24.7446 C   0  0  0  0  0  0  0  0  0  0  0  0
    8.3522   14.3409   25.3911 O   0  0  0  0  0  0  0  0  0  0  0  0
    7.6891   12.1037   25.3538 C   0  0  0  0  0  0  0  0  0  0  0  0
    6.7693   12.3106   26.3871 C   0  0  0  0  0  0  0  0  0  0  0  0
    6.1030   11.2285   26.9493 C   0  0  0  0  0  0  0  0  0  0  0  0
    6.3875    9.9663   26.4655 C   0  0  0  0  0  0  0  0  0  0  0  0
    7.2915    9.7195   25.4920 N   0  0  0  0  0  0  0  0  0  0  0  0
    7.9196   10.7956   24.9489 C   0  0  0  0  0  0  0  0  0  0  0  0
  1  2  1  0
  2  3  1  0
  3  4  1  0
  4  5  1  6
  4  6  1  0
  6  7  2  0
  6  8  1  0
  8  9  2  0
  9 10  1  0
 10 11  2  0
 11 12  1  0
 12 13  2  0
 13  8  1  0
M  END
>  <inchikey>  (748) 
CVVQZKTUYHICCC-UHFFFAOYSA-N

>  <energy_score>  (748) 
-23.305628

>  <subsites>  (748) 
1 - Active Site

>  <alias>  (748) 
C15065-P275

>  <tags>  (748) 
openbind_a71ev2a_c1_scaffolds,BulkDock Fragalysis export,openbind_a71ev2a_c1_knitwork_impure,fragmenstein_placed

>  <distance_score>  (748) 
0.811842

>  <placement_batch>  (748) 
openbind_a71ev2a_c1_knitwork_impure

>  <name>  (748) 
C15065-P275

>  <ref_mols>  (748) 
A4031b,A0719a

>  <smiles>  (748) 
COC[C@H](O)C(=O)c1cccnc1

>  <HIPPO Compound ID>  (748) 
12403

>  <HIPPO Pose ID>  (748) 
482857

>  <ref_pdb>  (748) 
A0556a

$$$$
C8159-P275
     RDKit          3D

 15 15  0  0  0  0  0  0  0  0999 V2000
    7.8096   14.8130   25.5950 C   0  0  0  0  0  0  0  0  0  0  0  0
    8.4406   13.5420   25.0301 C   0  0  2  0  0  0  0  0  0  0  0  0
    8.8221   13.6640   23.6061 N   0  0  0  0  0  0  0  0  0  0  0  0
    9.3067   15.0517   22.8154 S   0  0  0  0  0  0  0  0  0  0  0  0
    9.4023   14.6663   21.4256 O   0  0  0  0  0  0  0  0  0  0  0  0
    8.4475   16.1432   23.2054 O   0  0  0  0  0  0  0  0  0  0  0  0
   10.9748   15.3712   23.4180 C   0  0  0  0  0  0  0  0  0  0  0  0
   11.9206   14.2287   23.0945 C   0  0  0  0  0  0  0  0  0  0  0  0
   11.0389   15.7065   24.8987 C   0  0  0  0  0  0  0  0  0  0  0  0
    7.4458   12.3566   25.1675 C   0  0  2  0  0  0  0  0  0  0  0  0
    6.6624   12.3487   26.4960 C   0  0  0  0  0  0  0  0  0  0  0  0
    5.7710   11.1283   26.6423 C   0  0  0  0  0  0  0  0  0  0  0  0
    6.5036    9.8370   26.3327 C   0  0  0  0  0  0  0  0  0  0  0  0
    7.2381    9.8762   25.0802 N   0  0  0  0  0  0  0  0  0  0  0  0
    8.1459   11.0076   24.9750 C   0  0  0  0  0  0  0  0  0  0  0  0
  2  1  1  6
  2  3  1  0
  3  4  1  0
  4  5  2  0
  4  6  2  0
  4  7  1  0
  7  8  1  0
  7  9  1  0
  2 10  1  0
 10 11  1  1
 11 12  1  0
 12 13  1  0
 13 14  1  0
 14 15  1  0
 15 10  1  0
M  END
>  <inchikey>  (749) 
RAFCYCDJOWOOAS-UHFFFAOYSA-N

>  <energy_score>  (749) 
-42.181439

>  <subsites>  (749) 
1 - Active Site

>  <alias>  (749) 
C8159-P275

>  <tags>  (749) 
openbind_a71ev2a_c1_scaffolds,BulkDock Fragalysis export,openbind_a71ev2a_c1_knitwork_impure,fragmenstein_placed

>  <distance_score>  (749) 
0.950113

>  <placement_batch>  (749) 
openbind_a71ev2a_c1_knitwork_impure

>  <name>  (749) 
C8159-P275

>  <ref_mols>  (749) 
A4031b,A0719a

>  <smiles>  (749) 
CC(C)S(=O)(=O)N[C@@H](C)[C@@H]1CCCNC1

>  <HIPPO Compound ID>  (749) 
2479

>  <HIPPO Pose ID>  (749) 
482879

>  <ref_pdb>  (749) 
A0556a

$$$$
C2382-P321
     RDKit          3D

 15 15  0  0  0  0  0  0  0  0999 V2000
    6.7231   12.0025   26.2906 C   0  0  0  0  0  0  0  0  0  0  0  0
    7.4429   11.4629   25.0548 C   0  0  0  0  0  0  0  0  0  0  0  0
    7.6490    9.9614   25.1829 C   0  0  0  0  0  0  0  0  0  0  0  0
    8.7587   12.1577   24.7037 C   0  0  0  0  0  0  0  0  0  0  0  0
    8.7257   13.6567   24.9138 C   0  0  0  0  0  0  0  0  0  0  0  0
    8.9903   14.0875   26.0453 O   0  0  0  0  0  0  0  0  0  0  0  0
    8.4122   14.6087   23.7165 C   0  0  0  0  0  0  0  0  0  0  0  0
    7.2383   14.0326   22.9103 C   0  0  0  0  0  0  0  0  0  0  0  0
    7.9451   15.9645   24.2973 C   0  0  0  0  0  0  0  0  0  0  0  0
    9.6279   14.7071   22.8580 N   0  0  0  0  0  0  0  0  0  0  0  0
   10.8142   15.1905   23.5850 C   0  0  0  0  0  0  0  0  0  0  0  0
   12.0543   15.0593   22.7115 C   0  0  0  0  0  0  0  0  0  0  0  0
   11.9163   15.8788   21.4395 C   0  0  0  0  0  0  0  0  0  0  0  0
   10.6491   15.4735   20.7077 C   0  0  0  0  0  0  0  0  0  0  0  0
    9.4327   15.5203   21.6345 C   0  0  0  0  0  0  0  0  0  0  0  0
  1  2  1  0
  2  3  1  0
  2  4  1  0
  4  5  1  0
  5  6  2  0
  5  7  1  0
  7  8  1  0
  7  9  1  0
  7 10  1  0
 10 11  1  0
 11 12  1  0
 12 13  1  0
 13 14  1  0
 14 15  1  0
 15 10  1  0
M  END
>  <inchikey>  (750) 
VKVCIQZOMHUULA-UHFFFAOYSA-N

>  <energy_score>  (750) 
-46.559532

>  <subsites>  (750) 
1 - Active Site

>  <alias>  (750) 
C2382-P321

>  <tags>  (750) 
openbind_a71ev2a_c1_scaffolds,BulkDock Fragalysis export,openbind_a71ev2a_c1_knitwork_impure,fragmenstein_placed

>  <distance_score>  (750) 
0.925378

>  <placement_batch>  (750) 
openbind_a71ev2a_c1_knitwork_impure

>  <name>  (750) 
C2382-P321

>  <ref_mols>  (750) 
A4350a,A1779a

>  <smiles>  (750) 
CC(C)CC(=O)C(C)(C)N1CCCCC1

>  <HIPPO Compound ID>  (750) 
22011

>  <HIPPO Pose ID>  (750) 
483418

>  <ref_pdb>  (750) 
A0556a

$$$$
C10375-P497
     RDKit          3D

 21 24  0  0  0  0  0  0  0  0999 V2000
   20.3429   -2.8614   27.4479 C   0  0  0  0  0  0  0  0  0  0  0  0
   21.4815   -2.0972   27.7100 C   0  0  0  0  0  0  0  0  0  0  0  0
   22.0575   -1.3327   26.6973 C   0  0  0  0  0  0  0  0  0  0  0  0
   23.1651   -0.5401   26.8114 O   0  0  0  0  0  0  0  0  0  0  0  0
   23.8616   -0.5089   28.0597 C   0  0  0  0  0  0  0  0  0  0  0  0
   23.2401    0.5045   29.0179 C   0  0  0  0  0  0  0  0  0  0  0  0
   23.6934    1.8620   28.4863 C   0  0  0  0  0  0  0  0  0  0  0  0
   24.9924    1.6048   27.7250 C   0  0  0  0  0  0  0  0  0  0  0  0
   25.2408    0.1004   27.8085 C   0  0  0  0  0  0  0  0  0  0  0  0
   21.4766   -1.3314   25.4235 C   0  0  0  0  0  0  0  0  0  0  0  0
   20.3236   -2.0809   25.1475 C   0  0  0  0  0  0  0  0  0  0  0  0
   19.6832   -2.0544   23.8136 C   0  0  0  0  0  0  0  0  0  0  0  0
   19.2263   -3.2663   23.1136 C   0  0  0  0  0  0  0  0  0  0  0  0
   18.5775   -3.2178   21.9331 C   0  0  0  0  0  0  0  0  0  0  0  0
   18.3214   -1.9596   21.3294 C   0  0  0  0  0  0  0  0  0  0  0  0
   17.6867   -1.5958   20.2349 N   0  0  0  0  0  0  0  0  0  0  0  0
   17.7332   -0.2200   20.1589 N   0  0  0  0  0  0  0  0  0  0  0  0
   18.4087    0.2162   21.2008 C   0  0  0  0  0  0  0  0  0  0  0  0
   18.7868   -0.8352   21.9885 N   0  0  0  0  0  0  0  0  0  0  0  0
   19.4527   -0.8668   23.2093 C   0  0  0  0  0  0  0  0  0  0  0  0
   19.7711   -2.8562   26.1750 C   0  0  0  0  0  0  0  0  0  0  0  0
  1  2  2  0
  2  3  1  0
  3  4  1  0
  4  5  1  0
  5  6  1  0
  6  7  1  0
  7  8  1  0
  8  9  1  0
  3 10  2  0
 10 11  1  0
 11 12  1  0
 12 13  1  0
 13 14  2  0
 14 15  1  0
 15 16  2  0
 16 17  1  0
 17 18  2  0
 18 19  1  0
 19 20  1  0
 11 21  2  0
 21  1  1  0
  9  5  1  0
 20 12  2  0
 19 15  1  0
M  END
>  <inchikey>  (751) 
JCQQJJVJANIEDC-UHFFFAOYSA-N

>  <energy_score>  (751) 
-24.969333

>  <subsites>  (751) 
1 - Active Site,2 - A3977/A/202/1

>  <alias>  (751) 
C10375-P497

>  <tags>  (751) 
openbind_a71ev2a_c1_scaffolds,BulkDock Fragalysis export,openbind_a71ev2a_c1_knitwork_impure,fragmenstein_placed

>  <distance_score>  (751) 
0.304047

>  <placement_batch>  (751) 
openbind_a71ev2a_c1_knitwork_impure

>  <name>  (751) 
C10375-P497

>  <ref_mols>  (751) 
A4877b,A1293a

>  <smiles>  (751) 
c1cc(OC2CCCC2)cc(-c2ccc3nncn3c2)c1

>  <HIPPO Compound ID>  (751) 
11987

>  <HIPPO Pose ID>  (751) 
483497

>  <ref_pdb>  (751) 
A0556a

$$$$
C7372-P182
     RDKit          3D

 19 19  0  0  0  0  0  0  0  0999 V2000
    8.1356   14.9897   26.2745 C   0  0  0  0  0  0  0  0  0  0  0  0
    7.5307   13.9961   25.3194 C   0  0  0  0  0  0  0  0  0  0  0  0
    7.5366   14.2032   24.1062 O   0  0  0  0  0  0  0  0  0  0  0  0
    6.8637   12.7862   25.9436 C   0  0  0  0  0  0  0  0  0  0  0  0
    6.8846   11.5460   25.0724 C   0  0  0  0  0  0  0  0  0  0  0  0
    8.0087   10.5990   25.4042 C   0  0  0  0  0  0  0  0  0  0  0  0
    8.4582    9.6646   24.3000 C   0  0  0  0  0  0  0  0  0  0  0  0
    9.7127   10.0575   23.5601 C   0  0  0  0  0  0  0  0  0  0  0  0
    9.6755   11.4659   23.0200 C   0  0  0  0  0  0  0  0  0  0  0  0
   10.4435   12.5545   23.7589 C   0  0  0  0  0  0  0  0  0  0  0  0
   10.3093   12.8080   24.8863 O   0  0  0  0  0  0  0  0  0  0  0  0
   11.2988   13.2380   22.6785 N   0  0  0  0  0  0  0  0  0  0  0  0
   12.0889   14.4241   22.7352 C   0  0  0  0  0  0  0  0  0  0  0  0
   12.3672   14.9156   21.3346 C   0  0  0  0  0  0  0  0  0  0  0  0
   11.1426   15.3346   20.6267 C   0  0  0  0  0  0  0  0  0  0  0  0
   10.7742   15.0586   19.3387 C   0  0  0  0  0  0  0  0  0  0  0  0
    9.6711   15.7959   19.0411 O   0  0  0  0  0  0  0  0  0  0  0  0
    9.4044   16.4548   20.2079 C   0  0  0  0  0  0  0  0  0  0  0  0
   10.2375   16.1885   21.1824 N   0  0  0  0  0  0  0  0  0  0  0  0
  1  2  1  0
  2  3  2  0
  2  4  1  0
  4  5  1  0
  5  6  1  0
  6  7  1  0
  7  8  1  0
  8  9  1  0
  9 10  1  0
 10 11  2  0
 10 12  1  0
 12 13  1  0
 13 14  1  0
 14 15  1  0
 15 16  2  0
 16 17  1  0
 17 18  1  0
 18 19  2  0
 19 15  1  0
M  END
>  <inchikey>  (752) 
HPZYIMYCTDBYEK-UHFFFAOYSA-N

>  <energy_score>  (752) 
-1.243629

>  <subsites>  (752) 
1 - Active Site

>  <alias>  (752) 
C7372-P182

>  <tags>  (752) 
openbind_a71ev2a_c1_scaffolds,BulkDock Fragalysis export,openbind_a71ev2a_c1_knitwork_impure,fragmenstein_placed

>  <distance_score>  (752) 
0.999436

>  <placement_batch>  (752) 
openbind_a71ev2a_c1_knitwork_impure

>  <name>  (752) 
C7372-P182

>  <ref_mols>  (752) 
A3623a,A3435a

>  <smiles>  (752) 
CC(=O)CCCCCCC(=O)NCCc1cocn1

>  <HIPPO Compound ID>  (752) 
1373

>  <HIPPO Pose ID>  (752) 
483655

>  <ref_pdb>  (752) 
A0556a

$$$$
C1823-P158
     RDKit          3D

 12 13  0  0  0  0  0  0  0  0999 V2000
    7.3104   12.3492   25.5757 C   0  0  0  0  0  0  0  0  0  0  0  0
    7.9769   13.1890   24.7022 C   0  0  0  0  0  0  0  0  0  0  0  0
    8.8784   12.6324   23.7891 C   0  0  0  0  0  0  0  0  0  0  0  0
    9.5793   13.4703   22.7468 C   0  0  2  0  0  0  0  0  0  0  0  0
   10.6016   14.4420   23.3393 C   0  0  0  0  0  0  0  0  0  0  0  0
   11.3876   15.1447   22.2311 C   0  0  0  0  0  0  0  0  0  0  0  0
   10.7096   15.0372   20.8708 C   0  0  0  0  0  0  0  0  0  0  0  0
    9.1939   15.1157   20.9794 C   0  0  0  0  0  0  0  0  0  0  0  0
    8.5926   14.1433   21.8981 N   0  0  0  0  0  0  0  0  0  0  0  0
    9.0742   11.2509   23.8074 C   0  0  0  0  0  0  0  0  0  0  0  0
    8.3760   10.5030   24.7319 C   0  0  0  0  0  0  0  0  0  0  0  0
    7.5145   11.0212   25.6323 N   0  0  0  0  0  0  0  0  0  0  0  0
  1  2  2  0
  2  3  1  0
  4  3  1  1
  4  5  1  0
  5  6  1  0
  6  7  1  0
  7  8  1  0
  8  9  1  0
  3 10  2  0
 10 11  1  0
 11 12  2  0
 12  1  1  0
  9  4  1  0
M  END
>  <inchikey>  (753) 
YKFCDWMBODQRLV-UHFFFAOYSA-N

>  <energy_score>  (753) 
-18.199877

>  <subsites>  (753) 
1 - Active Site

>  <alias>  (753) 
C1823-P158

>  <tags>  (753) 
openbind_a71ev2a_c1_scaffolds,BulkDock Fragalysis export,openbind_a71ev2a_c1_knitwork_impure,fragmenstein_placed

>  <distance_score>  (753) 
0.8457

>  <placement_batch>  (753) 
openbind_a71ev2a_c1_knitwork_impure

>  <name>  (753) 
C1823-P158

>  <ref_mols>  (753) 
A3623a,A3222a

>  <smiles>  (753) 
c1cc([C@@H]2CCCCN2)ccn1

>  <HIPPO Compound ID>  (753) 
2418

>  <HIPPO Pose ID>  (753) 
484288

>  <ref_pdb>  (753) 
A0556a

$$$$
C8437-P343
     RDKit          3D

 22 24  0  0  0  0  0  0  0  0999 V2000
   10.5037   16.0511   18.8408 N   0  0  0  0  0  0  0  0  0  0  0  0
   10.5151   15.4705   19.8428 C   0  0  0  0  0  0  0  0  0  0  0  0
   10.4680   14.8602   21.1798 C   0  0  1  0  0  0  0  0  0  0  0  0
   11.5898   15.5006   22.0129 C   0  0  0  0  0  0  0  0  0  0  0  0
   11.3243   15.3842   23.4993 C   0  0  0  0  0  0  0  0  0  0  0  0
   10.0326   15.9460   23.9081 N   0  0  0  0  0  0  0  0  0  0  0  0
    9.1696   16.2830   22.7515 C   0  0  0  0  0  0  0  0  0  0  0  0
    9.0657   15.1122   21.7649 C   0  0  2  0  0  0  0  0  0  0  0  0
    8.4267   14.0396   22.5231 N   0  0  0  0  0  0  0  0  0  0  0  0
    9.0360   12.8318   23.2509 C   0  0  0  0  0  0  0  0  0  0  0  0
   10.1350   12.4559   23.2979 O   0  0  0  0  0  0  0  0  0  0  0  0
    8.0075   12.1556   24.0684 C   0  0  0  0  0  0  0  0  0  0  0  0
    7.9980   10.7681   24.2292 C   0  0  0  0  0  0  0  0  0  0  0  0
    7.1501   10.1934   25.1814 C   0  0  0  0  0  0  0  0  0  0  0  0
    6.3696   11.0125   25.9971 C   0  0  0  0  0  0  0  0  0  0  0  0
    6.3899   12.3865   25.8002 C   0  0  0  0  0  0  0  0  0  0  0  0
    7.1897   12.9762   24.8528 C   0  0  0  0  0  0  0  0  0  0  0  0
    5.5478   13.1576   26.6341 N   0  0  0  0  0  0  0  0  0  0  0  0
    4.8216   12.1009   27.7586 S   0  0  0  0  0  0  0  0  0  0  0  0
    5.3924   12.3766   29.0591 O   0  0  0  0  0  0  0  0  0  0  0  0
    3.3980   12.1363   27.5115 O   0  0  0  0  0  0  0  0  0  0  0  0
    5.5133   10.5664   27.1360 C   0  0  0  0  0  0  0  0  0  0  0  0
  1  2  3  0
  3  2  1  6
  3  4  1  0
  4  5  1  0
  5  6  1  0
  6  7  1  0
  7  8  1  0
  8  9  1  1
  9 10  1  0
 10 11  2  0
 10 12  1  0
 12 13  2  0
 13 14  1  0
 14 15  2  0
 15 16  1  0
 16 17  2  0
 16 18  1  0
 18 19  1  0
 19 20  2  0
 19 21  2  0
 19 22  1  0
  8  3  1  0
 17 12  1  0
 22 15  1  0
M  END
>  <inchikey>  (754) 
JTMLSSUHXRBMOA-UHFFFAOYSA-N

>  <energy_score>  (754) 
-10.02003

>  <subsites>  (754) 
1 - Active Site

>  <alias>  (754) 
C8437-P343

>  <tags>  (754) 
openbind_a71ev2a_c1_scaffolds,BulkDock Fragalysis export,openbind_a71ev2a_c1_knitwork_impure,fragmenstein_placed

>  <distance_score>  (754) 
0.995124

>  <placement_batch>  (754) 
openbind_a71ev2a_c1_knitwork_impure

>  <name>  (754) 
C8437-P343

>  <ref_mols>  (754) 
A2513a,A4274a

>  <smiles>  (754) 
N#C[C@H]1CCNC[C@@H]1NC(=O)c1ccc2c(c1)NS(=O)(=O)C2

>  <HIPPO Compound ID>  (754) 
29842

>  <HIPPO Pose ID>  (754) 
484496

>  <ref_pdb>  (754) 
A0556a

$$$$
C15183-P151
     RDKit          3D

 15 17  0  0  0  0  0  0  0  0999 V2000
    8.9475   11.1964   24.1380 C   0  0  0  0  0  0  0  0  0  0  0  0
    8.7825    9.8070   24.2411 C   0  0  0  0  0  0  0  0  0  0  0  0
    7.8131    9.4774   25.0935 N   0  0  0  0  0  0  0  0  0  0  0  0
    7.3138   10.6611   25.5451 N   0  0  0  0  0  0  0  0  0  0  0  0
    6.2282   10.6748   26.4839 C   0  0  0  0  0  0  0  0  0  0  0  0
    5.8039   11.8550   27.0744 C   0  0  0  0  0  0  0  0  0  0  0  0
    4.7869   11.7880   28.0327 C   0  0  0  0  0  0  0  0  0  0  0  0
    4.1975   10.5608   28.3651 C   0  0  0  0  0  0  0  0  0  0  0  0
    4.6384    9.4346   27.6873 C   0  0  0  0  0  0  0  0  0  0  0  0
    5.6425    9.4857   26.7821 N   0  0  0  0  0  0  0  0  0  0  0  0
    3.9977    8.0902   27.9127 C   0  0  0  0  0  0  0  0  0  0  0  0
    2.6140    8.1719   28.5509 C   0  0  0  0  0  0  0  0  0  0  0  0
    2.6625    9.0912   29.7624 C   0  0  0  0  0  0  0  0  0  0  0  0
    3.0486   10.5044   29.3346 C   0  0  0  0  0  0  0  0  0  0  0  0
    8.0033   11.7243   24.9898 C   0  0  0  0  0  0  0  0  0  0  0  0
  1  2  1  0
  2  3  2  0
  3  4  1  0
  4  5  1  0
  5  6  2  0
  6  7  1  0
  7  8  2  0
  8  9  1  0
  9 10  2  0
  9 11  1  0
 11 12  1  0
 12 13  1  0
 13 14  1  0
  4 15  1  0
 15  1  2  0
 10  5  1  0
 14  8  1  0
M  END
>  <inchikey>  (755) 
LTXRWJYJSXHLHR-UHFFFAOYSA-N

>  <energy_score>  (755) 
-29.324729

>  <subsites>  (755) 
1 - Active Site

>  <alias>  (755) 
C15183-P151

>  <tags>  (755) 
openbind_a71ev2a_c1_scaffolds,BulkDock Fragalysis export,openbind_a71ev2a_c1_knitwork_impure,fragmenstein_placed

>  <distance_score>  (755) 
0.990988

>  <placement_batch>  (755) 
openbind_a71ev2a_c1_knitwork_impure

>  <name>  (755) 
C15183-P151

>  <ref_mols>  (755) 
A0556a,A3194a

>  <smiles>  (755) 
c1cnn(-c2ccc3c(n2)CCCC3)c1

>  <HIPPO Compound ID>  (755) 
11989

>  <HIPPO Pose ID>  (755) 
484573

>  <ref_pdb>  (755) 
A0556a

$$$$
C15184-P151
     RDKit          3D

 14 16  0  0  0  0  0  0  0  0999 V2000
    8.9773   11.2929   24.0721 C   0  0  0  0  0  0  0  0  0  0  0  0
    8.8650    9.8993   24.1889 C   0  0  0  0  0  0  0  0  0  0  0  0
    7.9248    9.5427   25.0616 N   0  0  0  0  0  0  0  0  0  0  0  0
    7.3728   10.7109   25.4932 N   0  0  0  0  0  0  0  0  0  0  0  0
    6.2881   10.6894   26.4329 C   0  0  0  0  0  0  0  0  0  0  0  0
    5.7795   11.8711   26.9822 C   0  0  0  0  0  0  0  0  0  0  0  0
    4.7526   11.7945   27.9362 C   0  0  0  0  0  0  0  0  0  0  0  0
    4.2562   10.5478   28.2706 C   0  0  0  0  0  0  0  0  0  0  0  0
    4.7937    9.4332   27.6618 C   0  0  0  0  0  0  0  0  0  0  0  0
    5.7925    9.4694   26.7732 N   0  0  0  0  0  0  0  0  0  0  0  0
    4.0854    8.1833   28.0970 C   0  0  0  0  0  0  0  0  0  0  0  0
    2.8044    8.7642   28.7063 C   0  0  0  0  0  0  0  0  0  0  0  0
    3.1667   10.1648   29.2151 C   0  0  0  0  0  0  0  0  0  0  0  0
    8.0173   11.7938   24.9229 C   0  0  0  0  0  0  0  0  0  0  0  0
  1  2  1  0
  2  3  2  0
  3  4  1  0
  4  5  1  0
  5  6  2  0
  6  7  1  0
  7  8  2  0
  8  9  1  0
  9 10  2  0
  9 11  1  0
 11 12  1  0
 12 13  1  0
  4 14  1  0
 14  1  2  0
 10  5  1  0
 13  8  1  0
M  END
>  <inchikey>  (756) 
GSFKQOAHRINDLP-UHFFFAOYSA-N

>  <energy_score>  (756) 
-18.489805

>  <subsites>  (756) 
1 - Active Site

>  <alias>  (756) 
C15184-P151

>  <tags>  (756) 
openbind_a71ev2a_c1_scaffolds,BulkDock Fragalysis export,openbind_a71ev2a_c1_knitwork_impure,fragmenstein_placed

>  <distance_score>  (756) 
0.930895

>  <placement_batch>  (756) 
openbind_a71ev2a_c1_knitwork_impure

>  <name>  (756) 
C15184-P151

>  <ref_mols>  (756) 
A0556a,A3194a

>  <smiles>  (756) 
c1cnn(-c2ccc3c(n2)CCC3)c1

>  <HIPPO Compound ID>  (756) 
1418

>  <HIPPO Pose ID>  (756) 
484574

>  <ref_pdb>  (756) 
A0556a

$$$$
C31102-P120
     RDKit          3D

 17 17  0  0  0  0  0  0  0  0999 V2000
    3.4763    8.4499   28.6726 C   0  0  0  0  0  0  0  0  0  0  0  0
    3.4727    9.9696   28.6641 C   0  0  1  0  0  0  0  0  0  0  0  0
    3.1107   10.6221   30.3189 S   0  0  0  0  0  0  0  0  0  0  0  0
    1.3457   10.6508   30.1445 C   0  0  0  0  0  0  0  0  0  0  0  0
    0.7446   10.8863   31.3267 F   0  0  0  0  0  0  0  0  0  0  0  0
    0.8740    9.4741   29.6690 F   0  0  0  0  0  0  0  0  0  0  0  0
    0.9522   11.6090   29.2736 F   0  0  0  0  0  0  0  0  0  0  0  0
    4.8270   10.5325   28.1842 C   0  0  0  0  0  0  0  0  0  0  0  0
    5.7347   10.7325   28.8902 O   0  0  0  0  0  0  0  0  0  0  0  0
    4.6577   10.7979   26.6663 N   0  0  0  0  0  0  0  0  0  0  0  0
    5.6033   11.2754   25.6881 C   0  0  2  0  0  0  0  0  0  0  0  0
    6.4540   10.1195   25.1732 C   0  0  0  0  0  0  0  0  0  0  0  0
    7.6124   10.5623   24.2998 C   0  0  0  0  0  0  0  0  0  0  0  0
    7.4499   11.9384   23.8895 N   0  0  0  0  0  0  0  0  0  0  0  0
    7.4774   12.8098   24.9609 C   0  0  0  0  0  0  0  0  0  0  0  0
    8.3162   13.6998   25.0208 O   0  0  0  0  0  0  0  0  0  0  0  0
    6.4155   12.5229   26.0301 C   0  0  0  0  0  0  0  0  0  0  0  0
  2  1  1  1
  2  3  1  0
  3  4  1  0
  4  5  1  0
  4  6  1  0
  4  7  1  0
  2  8  1  0
  8  9  2  0
  8 10  1  0
 11 10  1  1
 11 12  1  0
 12 13  1  0
 13 14  1  0
 14 15  1  0
 15 16  2  0
 15 17  1  0
 17 11  1  0
M  END
>  <inchikey>  (757) 
ARNGBMWSRMXYCL-UHFFFAOYSA-N

>  <energy_score>  (757) 
-0.884999

>  <subsites>  (757) 
1 - Active Site

>  <alias>  (757) 
C31102-P120

>  <tags>  (757) 
openbind_a71ev2a_c1_scaffolds,BulkDock Fragalysis export,openbind_a71ev2a_c1_knitwork_impure,fragmenstein_placed

>  <distance_score>  (757) 
0.999214

>  <placement_batch>  (757) 
openbind_a71ev2a_c1_knitwork_impure

>  <name>  (757) 
C31102-P120

>  <ref_mols>  (757) 
A1445a,A4563a

>  <smiles>  (757) 
C[C@@H](SC(F)(F)F)C(=O)N[C@@H]1CCNC(=O)C1

>  <HIPPO Compound ID>  (757) 
5452

>  <HIPPO Pose ID>  (757) 
484625

>  <ref_pdb>  (757) 
A0556a

$$$$
C7479-P612
     RDKit          3D

 23 24  0  0  0  0  0  0  0  0999 V2000
    3.4487   12.3863   18.2067 C   0  0  0  0  0  0  0  0  0  0  0  0
    3.3082   12.6649   19.7034 C   0  0  0  0  0  0  0  0  0  0  0  0
    2.2181   11.7791   20.3066 C   0  0  0  0  0  0  0  0  0  0  0  0
    3.0256   14.0954   19.9693 C   0  0  0  0  0  0  0  0  0  0  0  0
    2.1273   14.6936   19.1318 O   0  0  0  0  0  0  0  0  0  0  0  0
    2.0765   15.9743   19.5585 C   0  0  0  0  0  0  0  0  0  0  0  0
    2.8355   16.2528   20.5961 N   0  0  0  0  0  0  0  0  0  0  0  0
    3.4269   15.0361   20.9038 C   0  0  0  0  0  0  0  0  0  0  0  0
    4.3196   14.8885   22.0968 C   0  0  0  0  0  0  0  0  0  0  0  0
    5.5983   15.5121   21.7925 N   0  0  0  0  0  0  0  0  0  0  0  0
    6.9985   14.7147   22.2182 S   0  0  0  0  0  0  0  0  0  0  0  0
    6.7400   13.3437   21.7996 O   0  0  0  0  0  0  0  0  0  0  0  0
    7.9850   15.4119   21.4186 O   0  0  0  0  0  0  0  0  0  0  0  0
    6.9619   14.9659   23.7307 N   0  0  0  0  0  0  0  0  0  0  0  0
    8.3065   14.6369   24.4036 S   0  0  2  0  0  0  0  0  0  0  0  0
    8.1476   15.2112   26.0836 C   0  0  0  0  0  0  0  0  0  0  0  0
    9.5867   15.1452   23.9562 O   0  0  0  0  0  0  0  0  0  0  0  0
    8.5174   12.8573   24.6504 C   0  0  0  0  0  0  0  0  0  0  0  0
    9.2924   12.2146   23.5064 C   0  0  0  0  0  0  0  0  0  0  0  0
    9.3721   10.6923   23.5351 C   0  0  0  0  0  0  0  0  0  0  0  0
    8.2209    9.9394   24.1739 C   0  0  0  0  0  0  0  0  0  0  0  0
    7.4133   10.6756   25.2250 C   0  0  0  0  0  0  0  0  0  0  0  0
    7.2020   12.1468   24.9298 C   0  0  0  0  0  0  0  0  0  0  0  0
  1  2  1  0
  2  3  1  0
  2  4  1  0
  4  5  1  0
  5  6  1  0
  6  7  2  0
  7  8  1  0
  8  9  1  0
  9 10  1  0
 10 11  1  0
 11 12  2  0
 11 13  2  0
 11 14  1  0
 14 15  2  0
 15 16  1  1
 15 17  2  0
 15 18  1  0
 18 19  1  0
 19 20  1  0
 20 21  1  0
 21 22  1  0
 22 23  1  0
  8  4  2  0
 23 18  1  0
M  END
>  <inchikey>  (758) 
RTQXTGWAIMKSIN-UHFFFAOYSA-N

>  <energy_score>  (758) 
-238.415014

>  <subsites>  (758) 
1 - Active Site

>  <alias>  (758) 
C7479-P612

>  <tags>  (758) 
openbind_a71ev2a_c1_scaffolds,BulkDock Fragalysis export,openbind_a71ev2a_c1_knitwork_impure,fragmenstein_placed

>  <distance_score>  (758) 
0.85956

>  <placement_batch>  (758) 
openbind_a71ev2a_c1_knitwork_impure

>  <name>  (758) 
C7479-P612

>  <ref_mols>  (758) 
A3623a,A5394a

>  <smiles>  (758) 
CC(C)c1ocnc1CNS(=O)(=O)N=[S@](C)(=O)C1CCCCC1

>  <HIPPO Compound ID>  (758) 
12012

>  <HIPPO Pose ID>  (758) 
485067

>  <ref_pdb>  (758) 
A0556a

$$$$
C11193-P363
     RDKit          3D

 11 11  0  0  0  0  0  0  0  0999 V2000
   10.3800   13.1908   23.3742 C   0  0  0  0  0  0  0  0  0  0  0  0
   10.0531   12.2603   24.4031 O   0  0  0  0  0  0  0  0  0  0  0  0
    9.0301   11.3532   24.0055 C   0  0  1  0  0  0  0  0  0  0  0  0
    9.6354   10.1334   23.3347 C   0  0  0  0  0  0  0  0  0  0  0  0
    8.1169   10.6764   25.4119 S   0  0  0  0  0  0  0  0  0  0  0  0
    7.1584   12.0262   26.0294 C   0  0  0  0  0  0  0  0  0  0  0  0
    5.9468   11.7118   26.6463 C   0  0  0  0  0  0  0  0  0  0  0  0
    5.2221   12.7280   27.2373 C   0  0  0  0  0  0  0  0  0  0  0  0
    5.6262   14.0121   27.2600 N   0  0  0  0  0  0  0  0  0  0  0  0
    6.7975   14.2924   26.6536 C   0  0  0  0  0  0  0  0  0  0  0  0
    7.5920   13.3445   26.0368 C   0  0  0  0  0  0  0  0  0  0  0  0
  1  2  1  0
  2  3  1  0
  3  4  1  1
  3  5  1  0
  5  6  1  0
  6  7  2  0
  7  8  1  0
  8  9  2  0
  9 10  1  0
 10 11  2  0
 11  6  1  0
M  END
>  <inchikey>  (759) 
WTLZXJJEXLVAHW-UHFFFAOYSA-N

>  <energy_score>  (759) 
-18.169407

>  <subsites>  (759) 
1 - Active Site

>  <alias>  (759) 
C11193-P363

>  <tags>  (759) 
openbind_a71ev2a_c1_scaffolds,BulkDock Fragalysis export,openbind_a71ev2a_c1_knitwork_impure,fragmenstein_placed

>  <distance_score>  (759) 
0.899624

>  <placement_batch>  (759) 
openbind_a71ev2a_c1_knitwork_impure

>  <name>  (759) 
C11193-P363

>  <ref_mols>  (759) 
A4445a,A3564a

>  <smiles>  (759) 
CO[C@@H](C)Sc1ccncc1

>  <HIPPO Compound ID>  (759) 
15060

>  <HIPPO Pose ID>  (759) 
485431

>  <ref_pdb>  (759) 
A0556a

$$$$
C11200-P363
     RDKit          3D

 13 13  0  0  0  0  0  0  0  0999 V2000
    9.6890   10.4232   23.7397 C   0  0  0  0  0  0  0  0  0  0  0  0
    9.6836   11.8335   23.2364 C   0  0  0  0  0  0  0  0  0  0  0  0
    9.3428   12.9513   23.8988 C   0  0  0  0  0  0  0  0  0  0  0  0
    9.3799   14.3271   23.2917 C   0  0  0  0  0  0  0  0  0  0  0  0
   10.5911   15.1358   23.7378 C   0  0  0  0  0  0  0  0  0  0  0  0
    9.1199   12.8510   25.3538 C   0  0  0  0  0  0  0  0  0  0  0  0
   10.0617   12.8757   26.1369 O   0  0  0  0  0  0  0  0  0  0  0  0
    7.7431   12.7680   25.8560 C   0  0  0  0  0  0  0  0  0  0  0  0
    7.1291   11.5296   26.0044 C   0  0  0  0  0  0  0  0  0  0  0  0
    5.9021   11.4938   26.6365 C   0  0  0  0  0  0  0  0  0  0  0  0
    5.2758   12.5861   27.1177 N   0  0  0  0  0  0  0  0  0  0  0  0
    5.9005   13.7743   26.9526 C   0  0  0  0  0  0  0  0  0  0  0  0
    7.1319   13.9185   26.3405 C   0  0  0  0  0  0  0  0  0  0  0  0
  1  2  1  0
  2  3  2  3
  3  4  1  0
  4  5  1  0
  3  6  1  0
  6  7  2  0
  6  8  1  0
  8  9  2  0
  9 10  1  0
 10 11  2  0
 11 12  1  0
 12 13  2  0
 13  8  1  0
M  END
>  <inchikey>  (760) 
NJZWNPRAQMACTE-UHFFFAOYSA-N

>  <energy_score>  (760) 
-30.262651

>  <subsites>  (760) 
1 - Active Site

>  <alias>  (760) 
C11200-P363

>  <tags>  (760) 
openbind_a71ev2a_c1_scaffolds,BulkDock Fragalysis export,openbind_a71ev2a_c1_knitwork_impure,fragmenstein_placed

>  <distance_score>  (760) 
0.75577

>  <placement_batch>  (760) 
openbind_a71ev2a_c1_knitwork_impure

>  <name>  (760) 
C11200-P363

>  <ref_mols>  (760) 
A4445a,A3564a

>  <smiles>  (760) 
CC=C(CC)C(=O)c1ccncc1

>  <HIPPO Compound ID>  (760) 
39108

>  <HIPPO Pose ID>  (760) 
485434

>  <ref_pdb>  (760) 
A0556a

$$$$
C1785-P457
     RDKit          3D

 11 12  0  0  0  0  0  0  0  0999 V2000
    3.4991    8.6417   27.4640 C   0  0  0  0  0  0  0  0  0  0  0  0
    4.1796    9.4508   26.6827 N   0  0  0  0  0  0  0  0  0  0  0  0
    5.1768   10.0713   27.4135 C   0  0  0  0  0  0  0  0  0  0  0  0
    6.2072   10.8988   26.6978 C   0  0  0  0  0  0  0  0  0  0  0  0
    6.7568   10.2293   25.4339 C   0  0  0  0  0  0  0  0  0  0  0  0
    7.9032   11.0419   24.8281 C   0  0  0  0  0  0  0  0  0  0  0  0
    7.8644   12.4650   25.1881 N   0  0  0  0  0  0  0  0  0  0  0  0
    6.4916   12.9590   25.2298 C   0  0  0  0  0  0  0  0  0  0  0  0
    5.6895   12.3028   26.3572 C   0  0  0  0  0  0  0  0  0  0  0  0
    5.1026    9.8444   28.7780 C   0  0  0  0  0  0  0  0  0  0  0  0
    3.8068    8.7840   29.1394 S   0  0  0  0  0  0  0  0  0  0  0  0
  1  2  2  0
  2  3  1  0
  3  4  1  0
  4  5  1  0
  5  6  1  0
  6  7  1  0
  7  8  1  0
  8  9  1  0
  3 10  2  0
 10 11  1  0
 11  1  1  0
  9  4  1  0
M  END
>  <inchikey>  (761) 
GOSRQBSVGZRPLI-UHFFFAOYSA-N

>  <energy_score>  (761) 
-39.482596

>  <subsites>  (761) 
1 - Active Site

>  <alias>  (761) 
C1785-P457

>  <tags>  (761) 
openbind_a71ev2a_c1_scaffolds,BulkDock Fragalysis export,openbind_a71ev2a_c1_knitwork_impure,fragmenstein_placed

>  <distance_score>  (761) 
0.942256

>  <placement_batch>  (761) 
openbind_a71ev2a_c1_knitwork_impure

>  <name>  (761) 
C1785-P457

>  <ref_mols>  (761) 
A4751a,A0556a

>  <smiles>  (761) 
c1nc(C2CCNCC2)cs1

>  <HIPPO Compound ID>  (761) 
2375

>  <HIPPO Pose ID>  (761) 
485470

>  <ref_pdb>  (761) 
A0556a

$$$$
C1796-P457
     RDKit          3D

 11 12  0  0  0  0  0  0  0  0999 V2000
    4.1025    8.8958   28.8318 C   0  0  0  0  0  0  0  0  0  0  0  0
    3.5382    8.7111   27.5978 C   0  0  0  0  0  0  0  0  0  0  0  0
    4.2309    9.4633   26.7017 O   0  0  0  0  0  0  0  0  0  0  0  0
    5.2412   10.0163   27.4393 C   0  0  0  0  0  0  0  0  0  0  0  0
    6.2410   10.8499   26.7113 C   0  0  0  0  0  0  0  0  0  0  0  0
    6.7612   10.1972   25.4297 C   0  0  0  0  0  0  0  0  0  0  0  0
    7.8891   11.0251   24.8095 C   0  0  0  0  0  0  0  0  0  0  0  0
    7.8427   12.4434   25.1825 N   0  0  0  0  0  0  0  0  0  0  0  0
    6.4708   12.9306   25.2677 C   0  0  0  0  0  0  0  0  0  0  0  0
    5.6985   12.2504   26.4022 C   0  0  0  0  0  0  0  0  0  0  0  0
    5.1830    9.7371   28.7298 N   0  0  0  0  0  0  0  0  0  0  0  0
  1  2  2  0
  2  3  1  0
  3  4  1  0
  4  5  1  0
  5  6  1  0
  6  7  1  0
  7  8  1  0
  8  9  1  0
  9 10  1  0
  4 11  2  0
 11  1  1  0
 10  5  1  0
M  END
>  <inchikey>  (762) 
GDXDBEIGTXDPSA-UHFFFAOYSA-N

>  <energy_score>  (762) 
-21.864975

>  <subsites>  (762) 
1 - Active Site

>  <alias>  (762) 
C1796-P457

>  <tags>  (762) 
openbind_a71ev2a_c1_scaffolds,BulkDock Fragalysis export,openbind_a71ev2a_c1_knitwork_impure,fragmenstein_placed

>  <distance_score>  (762) 
0.954211

>  <placement_batch>  (762) 
openbind_a71ev2a_c1_knitwork_impure

>  <name>  (762) 
C1796-P457

>  <ref_mols>  (762) 
A4751a,A0556a

>  <smiles>  (762) 
c1coc(C2CCNCC2)n1

>  <HIPPO Compound ID>  (762) 
9322

>  <HIPPO Pose ID>  (762) 
485473

>  <ref_pdb>  (762) 
A0556a

$$$$
C7646-P275
     RDKit          3D

 13 14  0  0  0  0  0  0  0  0999 V2000
    5.9296   15.9307   22.2445 N   0  0  0  0  0  0  0  0  0  0  0  0
    7.2846   14.9894   22.5452 S   0  0  0  0  0  0  0  0  0  0  0  0
    8.4114   15.7307   22.0377 O   0  0  0  0  0  0  0  0  0  0  0  0
    6.9631   13.6673   22.0530 O   0  0  0  0  0  0  0  0  0  0  0  0
    7.2978   15.0491   24.3386 C   0  0  0  0  0  0  0  0  0  0  0  0
    8.2939   14.0542   24.9128 C   0  0  0  0  0  0  0  0  0  0  0  0
    7.6483   12.6719   24.9602 C   0  0  0  0  0  0  0  0  0  0  0  0
    8.5810   11.5579   25.0365 N   0  0  0  0  0  0  0  0  0  0  0  0
    7.8244   10.2978   25.1361 C   0  0  0  0  0  0  0  0  0  0  0  0
    8.7628    9.2785   24.6157 C   0  0  1  0  0  0  0  0  0  0  0  0
    9.0715    8.8974   23.2018 C   0  0  0  0  0  0  0  0  0  0  0  0
    9.8183    9.9961   23.8531 C   0  0  1  0  0  0  0  0  0  0  0  0
    9.4404   11.4435   23.8379 C   0  0  0  0  0  0  0  0  0  0  0  0
  1  2  1  0
  2  3  2  0
  2  4  2  0
  2  5  1  0
  5  6  1  0
  6  7  1  0
  7  8  1  0
  8  9  1  0
 10  9  1  6
 10 11  1  0
 12 11  1  6
 12 13  1  0
 13  8  1  0
 12 10  1  0
M  END
>  <inchikey>  (763) 
LSKCKISVBNXGCT-UHFFFAOYSA-N

>  <energy_score>  (763) 
-30.19306

>  <subsites>  (763) 
1 - Active Site

>  <alias>  (763) 
C7646-P275

>  <tags>  (763) 
openbind_a71ev2a_c1_scaffolds,BulkDock Fragalysis export,openbind_a71ev2a_c1_knitwork_impure,fragmenstein_placed

>  <distance_score>  (763) 
0.965855

>  <placement_batch>  (763) 
openbind_a71ev2a_c1_knitwork_impure

>  <name>  (763) 
C7646-P275

>  <ref_mols>  (763) 
A4031b,A0719a

>  <smiles>  (763) 
NS(=O)(=O)CCCN1C[C@H]2C[C@H]2C1

>  <HIPPO Compound ID>  (763) 
2531

>  <HIPPO Pose ID>  (763) 
485622

>  <ref_pdb>  (763) 
A0556a

$$$$
C1446-P71
     RDKit          3D

 16 17  0  0  0  0  0  0  0  0999 V2000
    4.9002   12.1496    3.3269 C   0  0  0  0  0  0  0  0  0  0  0  0
    5.4225   13.4914    3.8186 C   0  0  2  0  0  0  0  0  0  0  0  0
    5.5994   14.5775    2.7286 C   0  0  1  0  0  0  0  0  0  0  0  0
    6.0468   14.0456    1.3634 C   0  0  0  0  0  0  0  0  0  0  0  0
    5.6159   14.3520    0.2645 O   0  0  0  0  0  0  0  0  0  0  0  0
    7.0764   13.1798    1.4327 O   0  0  0  0  0  0  0  0  0  0  0  0
    4.3071   15.2839    2.5853 N   0  0  0  0  0  0  0  0  0  0  0  0
    3.1709   14.8314    1.9642 C   0  0  0  0  0  0  0  0  0  0  0  0
    2.1726   15.7275    2.2629 C   0  0  0  0  0  0  0  0  0  0  0  0
    2.7867   16.6855    3.0812 C   0  0  0  0  0  0  0  0  0  0  0  0
    4.0766   16.4181    3.2894 N   0  0  0  0  0  0  0  0  0  0  0  0
    6.7233   15.5300    3.2371 C   0  0  0  0  0  0  0  0  0  0  0  0
    7.8372   14.6757    3.8238 C   0  0  0  0  0  0  0  0  0  0  0  0
    6.9960   13.3656    4.6751 S   0  0  0  0  0  0  0  0  0  0  0  0
    6.8258   13.8055    6.0505 O   0  0  0  0  0  0  0  0  0  0  0  0
    7.6428   12.1110    4.3731 O   0  0  0  0  0  0  0  0  0  0  0  0
  2  1  1  6
  2  3  1  0
  3  4  1  0
  4  5  2  0
  4  6  1  0
  3  7  1  6
  7  8  1  0
  8  9  2  0
  9 10  1  0
 10 11  2  0
  3 12  1  0
 12 13  1  0
 13 14  1  0
 14 15  2  0
 14 16  2  0
 14  2  1  0
 11  7  1  0
M  END
>  <inchikey>  (764) 
CQUDLYKHYNSNKN-UHFFFAOYSA-N

>  <energy_score>  (764) 
-55.772795

>  <subsites>  (764) 
3 - A0541/A/147/1

>  <alias>  (764) 
C1446-P71

>  <tags>  (764) 
openbind_a71ev2a_c1_scaffolds,BulkDock Fragalysis export,openbind_a71ev2a_c1_knitwork_impure,fragmenstein_placed

>  <distance_score>  (764) 
0.808579

>  <placement_batch>  (764) 
openbind_a71ev2a_c1_knitwork_impure

>  <name>  (764) 
C1446-P71

>  <ref_mols>  (764) 
A0354a,A0428a

>  <smiles>  (764) 
C[C@@H]1[C@@](C(=O)O)(n2cccn2)CCS1(=O)=O

>  <HIPPO Compound ID>  (764) 
1446

>  <HIPPO Pose ID>  (764) 
485822

>  <ref_pdb>  (764) 
A4012a

$$$$
C7652-P325
     RDKit          3D

 12 12  0  0  0  0  0  0  0  0999 V2000
   12.0522   15.1402   22.5100 C   0  0  0  0  0  0  0  0  0  0  0  0
   10.7116   15.1922   23.2179 C   0  0  0  0  0  0  0  0  0  0  0  0
    9.6151   14.6978   22.2868 C   0  0  0  0  0  0  0  0  0  0  0  0
    8.0043   14.5530   23.0424 S   0  0  0  0  0  0  0  0  0  0  0  0
    7.4148   15.8710   23.1061 O   0  0  0  0  0  0  0  0  0  0  0  0
    7.3077   13.4384   22.4349 O   0  0  0  0  0  0  0  0  0  0  0  0
    8.3312   14.1972   24.6274 N   0  0  0  0  0  0  0  0  0  0  0  0
    8.5935   12.8806   25.1566 C   0  0  2  0  0  0  0  0  0  0  0  0
    9.2418   11.8979   24.2445 C   0  0  0  0  0  0  0  0  0  0  0  0
    8.6881   10.6855   24.3804 C   0  0  0  0  0  0  0  0  0  0  0  0
    7.5816   10.7050   25.3837 C   0  0  0  0  0  0  0  0  0  0  0  0
    7.2985   12.1875   25.5605 C   0  0  0  0  0  0  0  0  0  0  0  0
  1  2  1  0
  2  3  1  0
  3  4  1  0
  4  5  2  0
  4  6  2  0
  4  7  1  0
  8  7  1  6
  8  9  1  0
  9 10  2  0
 10 11  1  0
 11 12  1  0
 12  8  1  0
M  END
>  <inchikey>  (765) 
ZMWSPLIMPYHVRD-UHFFFAOYSA-N

>  <energy_score>  (765) 
-20.198294

>  <subsites>  (765) 
1 - Active Site

>  <alias>  (765) 
C7652-P325

>  <tags>  (765) 
openbind_a71ev2a_c1_scaffolds,BulkDock Fragalysis export,openbind_a71ev2a_c1_knitwork_impure,fragmenstein_placed

>  <distance_score>  (765) 
0.869298

>  <placement_batch>  (765) 
openbind_a71ev2a_c1_knitwork_impure

>  <name>  (765) 
C7652-P325

>  <ref_mols>  (765) 
A4368a,A0719a

>  <smiles>  (765) 
CCCS(=O)(=O)N[C@@H]1C=CCC1

>  <HIPPO Compound ID>  (765) 
5412

>  <HIPPO Pose ID>  (765) 
486199

>  <ref_pdb>  (765) 
A4012a

$$$$
C8173-P244
     RDKit          3D

 17 17  0  0  0  0  0  0  0  0999 V2000
    7.7359   13.3038   22.3596 O   0  0  0  0  0  0  0  0  0  0  0  0
    8.4991   13.9115   23.0048 C   0  0  0  0  0  0  0  0  0  0  0  0
    9.4183   15.1157   22.6184 N   0  0  0  0  0  0  0  0  0  0  0  0
    9.6486   15.7460   21.3398 C   0  0  0  0  0  0  0  0  0  0  0  0
   11.0513   15.4103   20.8549 C   0  0  0  0  0  0  0  0  0  0  0  0
   11.2525   15.7601   19.4049 C   0  0  0  0  0  0  0  0  0  0  0  0
   10.6300   14.9071   18.5716 F   0  0  0  0  0  0  0  0  0  0  0  0
   10.7996   16.9990   19.1204 F   0  0  0  0  0  0  0  0  0  0  0  0
   12.5630   15.7229   19.0820 F   0  0  0  0  0  0  0  0  0  0  0  0
    8.8914   13.5963   24.4601 C   0  0  1  0  0  0  0  0  0  0  0  0
    8.7720   14.7093   25.2491 F   0  0  0  0  0  0  0  0  0  0  0  0
    8.2451   12.4305   25.1963 C   0  0  0  0  0  0  0  0  0  0  0  0
    8.3239   11.0896   24.4795 C   0  0  0  0  0  0  0  0  0  0  0  0
    7.7319    9.9754   25.3346 C   0  0  0  0  0  0  0  0  0  0  0  0
    6.3896   10.2484   25.8246 N   0  0  0  0  0  0  0  0  0  0  0  0
    6.2738   11.5384   26.4984 C   0  0  0  0  0  0  0  0  0  0  0  0
    6.8268   12.7134   25.6851 C   0  0  0  0  0  0  0  0  0  0  0  0
  1  2  2  0
  2  3  1  0
  3  4  1  0
  4  5  1  0
  5  6  1  0
  6  7  1  0
  6  8  1  0
  6  9  1  0
  2 10  1  0
 10 11  1  1
 10 12  1  0
 12 13  1  0
 13 14  1  0
 14 15  1  0
 15 16  1  0
 16 17  1  0
 17 12  1  0
M  END
>  <inchikey>  (766) 
GCAKZJRFFNZIMB-UHFFFAOYSA-N

>  <energy_score>  (766) 
-6.369733

>  <subsites>  (766) 
1 - Active Site

>  <alias>  (766) 
C8173-P244

>  <tags>  (766) 
openbind_a71ev2a_c1_scaffolds,BulkDock Fragalysis export,openbind_a71ev2a_c1_knitwork_impure,fragmenstein_placed

>  <distance_score>  (766) 
0.902301

>  <placement_batch>  (766) 
openbind_a71ev2a_c1_knitwork_impure

>  <name>  (766) 
C8173-P244

>  <ref_mols>  (766) 
A3940a,A0719a

>  <smiles>  (766) 
O=C(NCCC(F)(F)F)[C@@H](F)C1CCNCC1

>  <HIPPO Compound ID>  (766) 
6603

>  <HIPPO Pose ID>  (766) 
486665

>  <ref_pdb>  (766) 
A4012a

$$$$
C7674-P192
     RDKit          3D

 13 14  0  0  0  0  0  0  0  0999 V2000
    5.7005   15.4641   21.7521 N   0  0  0  0  0  0  0  0  0  0  0  0
    7.1170   14.7272   22.2817 S   0  0  0  0  0  0  0  0  0  0  0  0
    8.1947   15.4836   21.6918 O   0  0  0  0  0  0  0  0  0  0  0  0
    6.9315   13.3191   22.0243 O   0  0  0  0  0  0  0  0  0  0  0  0
    7.0265   15.1052   24.0328 C   0  0  0  0  0  0  0  0  0  0  0  0
    8.3786   15.0076   24.7347 C   0  0  0  0  0  0  0  0  0  0  0  0
    8.5581   13.7239   25.5302 C   0  0  0  0  0  0  0  0  0  0  0  0
    8.3853   12.5507   24.7156 N   0  0  0  0  0  0  0  0  0  0  0  0
    9.5303   12.2176   23.8507 C   0  0  0  0  0  0  0  0  0  0  0  0
    9.3038   10.7407   23.4953 C   0  0  0  0  0  0  0  0  0  0  0  0
    8.5119   10.1629   24.6151 C   0  0  2  0  0  0  0  0  0  0  0  0
    7.0542   10.4244   24.8333 C   0  0  0  0  0  0  0  0  0  0  0  0
    8.0542   11.3245   25.4348 C   0  0  2  0  0  0  0  0  0  0  0  0
  1  2  1  0
  2  3  2  0
  2  4  2  0
  2  5  1  0
  5  6  1  0
  6  7  1  0
  7  8  1  0
  8  9  1  0
  9 10  1  0
 11 10  1  6
 11 12  1  0
 13 12  1  6
 13  8  1  0
 13 11  1  0
M  END
>  <inchikey>  (767) 
FVNJSOWLEHGULL-UHFFFAOYSA-N

>  <energy_score>  (767) 
-77.502317

>  <subsites>  (767) 
1 - Active Site

>  <alias>  (767) 
C7674-P192

>  <tags>  (767) 
openbind_a71ev2a_c1_scaffolds,BulkDock Fragalysis export,openbind_a71ev2a_c1_knitwork_impure,fragmenstein_placed

>  <distance_score>  (767) 
0.912004

>  <placement_batch>  (767) 
openbind_a71ev2a_c1_knitwork_impure

>  <name>  (767) 
C7674-P192

>  <ref_mols>  (767) 
A3510a,A0719a

>  <smiles>  (767) 
NS(=O)(=O)CCCN1CC[C@@H]2C[C@@H]21

>  <HIPPO Compound ID>  (767) 
7674

>  <HIPPO Pose ID>  (767) 
486801

>  <ref_pdb>  (767) 
A4012a

$$$$
C8138-P270
     RDKit          3D

 15 15  0  0  0  0  0  0  0  0999 V2000
   11.8647   16.1801   21.5091 C   0  0  0  0  0  0  0  0  0  0  0  0
   11.8340   15.0362   22.5064 C   0  0  0  0  0  0  0  0  0  0  0  0
   10.5953   14.9583   23.4032 C   0  0  1  0  0  0  0  0  0  0  0  0
   10.6580   16.0348   24.4848 C   0  0  0  0  0  0  0  0  0  0  0  0
    9.2892   15.0301   22.6026 C   0  0  0  0  0  0  0  0  0  0  0  0
    8.1801   14.1272   23.1049 C   0  0  0  0  0  0  0  0  0  0  0  0
    7.2851   13.7514   22.3368 O   0  0  0  0  0  0  0  0  0  0  0  0
    8.1107   13.7652   24.5875 C   0  0  1  0  0  0  0  0  0  0  0  0
    6.9364   14.4037   25.0927 O   0  0  0  0  0  0  0  0  0  0  0  0
    8.1658   12.2489   24.8932 C   0  0  0  0  0  0  0  0  0  0  0  0
    6.8149   11.6887   25.3174 C   0  0  0  0  0  0  0  0  0  0  0  0
    6.8264   10.1833   25.4930 C   0  0  0  0  0  0  0  0  0  0  0  0
    7.3747    9.4724   24.3618 N   0  0  0  0  0  0  0  0  0  0  0  0
    8.7014    9.9009   23.9587 C   0  0  0  0  0  0  0  0  0  0  0  0
    8.8089   11.4093   23.7796 C   0  0  0  0  0  0  0  0  0  0  0  0
  1  2  1  0
  2  3  1  0
  3  4  1  1
  3  5  1  0
  5  6  1  0
  6  7  2  0
  6  8  1  0
  8  9  1  6
  8 10  1  0
 10 11  1  0
 11 12  1  0
 12 13  1  0
 13 14  1  0
 14 15  1  0
 15 10  1  0
M  END
>  <inchikey>  (768) 
DCPARYBUYLWDFA-UHFFFAOYSA-N

>  <energy_score>  (768) 
-23.974904

>  <subsites>  (768) 
1 - Active Site

>  <alias>  (768) 
C8138-P270

>  <tags>  (768) 
openbind_a71ev2a_c1_scaffolds,BulkDock Fragalysis export,openbind_a71ev2a_c1_knitwork_impure,fragmenstein_placed

>  <distance_score>  (768) 
0.93454

>  <placement_batch>  (768) 
openbind_a71ev2a_c1_knitwork_impure

>  <name>  (768) 
C8138-P270

>  <ref_mols>  (768) 
A0719a,A4020a

>  <smiles>  (768) 
CC[C@@H](C)CC(=O)[C@@H](O)C1CCNCC1

>  <HIPPO Compound ID>  (768) 
872

>  <HIPPO Pose ID>  (768) 
486944

>  <ref_pdb>  (768) 
A4012a

$$$$
C8144-P270
     RDKit          3D

 15 15  0  0  0  0  0  0  0  0999 V2000
   11.6699   15.0661   23.3390 C   0  0  0  0  0  0  0  0  0  0  0  0
   10.4536   15.5715   23.8573 O   0  0  0  0  0  0  0  0  0  0  0  0
    9.3462   15.5929   22.9414 C   0  0  0  0  0  0  0  0  0  0  0  0
    9.6474   16.2205   21.6953 O   0  0  0  0  0  0  0  0  0  0  0  0
   10.0661   15.4002   20.6181 C   0  0  0  0  0  0  0  0  0  0  0  0
    8.6274   14.2301   22.8576 C   0  0  2  0  0  0  0  0  0  0  0  0
    7.4784   14.2131   21.9939 O   0  0  0  0  0  0  0  0  0  0  0  0
    8.1182   13.8275   24.2385 C   0  0  0  0  0  0  0  0  0  0  0  0
    7.5123   14.6089   24.9796 O   0  0  0  0  0  0  0  0  0  0  0  0
    8.4324   12.3945   24.6677 C   0  0  1  0  0  0  0  0  0  0  0  0
    7.5815   11.9717   25.8529 C   0  0  0  0  0  0  0  0  0  0  0  0
    6.5247   10.9375   25.5900 C   0  0  0  0  0  0  0  0  0  0  0  0
    7.1722    9.7214   24.9514 C   0  0  0  0  0  0  0  0  0  0  0  0
    8.3308   10.0441   24.0073 C   0  0  0  0  0  0  0  0  0  0  0  0
    8.3026   11.4370   23.5562 N   0  0  0  0  0  0  0  0  0  0  0  0
  1  2  1  0
  2  3  1  0
  3  4  1  0
  4  5  1  0
  3  6  1  0
  6  7  1  6
  6  8  1  0
  8  9  2  0
 10  8  1  6
 10 11  1  0
 11 12  1  0
 12 13  1  0
 13 14  1  0
 14 15  1  0
 15 10  1  0
M  END
>  <inchikey>  (769) 
CZSVMTMCGSPTJV-UHFFFAOYSA-N

>  <energy_score>  (769) 
-28.960977

>  <subsites>  (769) 
1 - Active Site

>  <alias>  (769) 
C8144-P270

>  <tags>  (769) 
openbind_a71ev2a_c1_scaffolds,BulkDock Fragalysis export,openbind_a71ev2a_c1_knitwork_impure,fragmenstein_placed

>  <distance_score>  (769) 
0.891312

>  <placement_batch>  (769) 
openbind_a71ev2a_c1_knitwork_impure

>  <name>  (769) 
C8144-P270

>  <ref_mols>  (769) 
A0719a,A4020a

>  <smiles>  (769) 
COC(OC)[C@H](O)C(=O)[C@H]1CCCCN1

>  <HIPPO Compound ID>  (769) 
8144

>  <HIPPO Pose ID>  (769) 
486949

>  <ref_pdb>  (769) 
A4012a

$$$$
C8152-P270
     RDKit          3D

 14 14  0  0  0  0  0  0  0  0999 V2000
    9.2854    9.0272   23.4524 C   0  0  0  0  0  0  0  0  0  0  0  0
    8.3054    9.9035   24.1997 C   0  0  0  0  0  0  0  0  0  0  0  0
    8.6368   11.2848   24.0092 O   0  0  0  0  0  0  0  0  0  0  0  0
    7.8591   12.1413   24.7377 C   0  0  0  0  0  0  0  0  0  0  0  0
    6.9756   11.7690   25.5023 O   0  0  0  0  0  0  0  0  0  0  0  0
    8.3076   13.6000   24.5557 C   0  0  2  0  0  0  0  0  0  0  0  0
    7.2867   14.5470   24.8980 O   0  0  0  0  0  0  0  0  0  0  0  0
    8.7795   13.9204   23.1217 C   0  0  0  0  0  0  0  0  0  0  0  0
    9.1489   15.3548   23.0260 N   0  0  0  0  0  0  0  0  0  0  0  0
   10.4766   15.6383   23.6011 C   0  0  0  0  0  0  0  0  0  0  0  0
   11.6544   15.1496   22.7584 C   0  0  0  0  0  0  0  0  0  0  0  0
   11.5702   15.6915   21.3386 C   0  0  0  0  0  0  0  0  0  0  0  0
   10.2064   15.3904   20.7324 C   0  0  0  0  0  0  0  0  0  0  0  0
    9.0754   15.8643   21.6431 C   0  0  0  0  0  0  0  0  0  0  0  0
  1  2  1  0
  2  3  1  0
  3  4  1  0
  4  5  2  0
  4  6  1  0
  6  7  1  6
  6  8  1  0
  8  9  1  0
  9 10  1  0
 10 11  1  0
 11 12  1  0
 12 13  1  0
 13 14  1  0
 14  9  1  0
M  END
>  <inchikey>  (770) 
CQGFXNLTTLLTME-UHFFFAOYSA-N

>  <energy_score>  (770) 
-56.398366

>  <subsites>  (770) 
1 - Active Site

>  <alias>  (770) 
C8152-P270

>  <tags>  (770) 
openbind_a71ev2a_c1_scaffolds,BulkDock Fragalysis export,openbind_a71ev2a_c1_knitwork_impure,fragmenstein_placed

>  <distance_score>  (770) 
0.769405

>  <placement_batch>  (770) 
openbind_a71ev2a_c1_knitwork_impure

>  <name>  (770) 
C8152-P270

>  <ref_mols>  (770) 
A0719a,A4020a

>  <smiles>  (770) 
CCOC(=O)[C@H](O)CN1CCCCC1

>  <HIPPO Compound ID>  (770) 
8152

>  <HIPPO Pose ID>  (770) 
486954

>  <ref_pdb>  (770) 
A4012a

$$$$
C8160-P270
     RDKit          3D

 14 14  0  0  0  0  0  0  0  0999 V2000
   10.8628   15.5249   19.3567 C   0  0  0  0  0  0  0  0  0  0  0  0
   10.9740   15.1700   20.8386 C   0  0  0  0  0  0  0  0  0  0  0  0
   11.8998   16.1633   21.5435 C   0  0  0  0  0  0  0  0  0  0  0  0
    9.5772   15.1069   21.4781 C   0  0  0  0  0  0  0  0  0  0  0  0
    9.7235   14.8742   22.9275 N   0  0  0  0  0  0  0  0  0  0  0  0
    8.3851   14.4279   23.7892 S   0  0  0  0  0  0  0  0  0  0  0  0
    8.7037   14.6951   25.1726 O   0  0  0  0  0  0  0  0  0  0  0  0
    7.2046   14.9463   23.1496 O   0  0  0  0  0  0  0  0  0  0  0  0
    8.3185   12.7523   23.6425 N   0  0  0  0  0  0  0  0  0  0  0  0
    7.2016   12.2258   24.4836 C   0  0  0  0  0  0  0  0  0  0  0  0
    7.4831   10.8958   25.1489 C   0  0  0  0  0  0  0  0  0  0  0  0
    8.2076    9.9246   24.2517 C   0  0  0  0  0  0  0  0  0  0  0  0
    9.3997   10.5480   23.5561 C   0  0  0  0  0  0  0  0  0  0  0  0
    9.5922   12.0418   23.8102 C   0  0  0  0  0  0  0  0  0  0  0  0
  1  2  1  0
  2  3  1  0
  2  4  1  0
  4  5  1  0
  5  6  1  0
  6  7  2  0
  6  8  2  0
  6  9  1  0
  9 10  1  0
 10 11  1  0
 11 12  1  0
 12 13  1  0
 13 14  1  0
 14  9  1  0
M  END
>  <inchikey>  (771) 
YVEDCTAHRCLMTN-UHFFFAOYSA-N

>  <energy_score>  (771) 
-43.855213

>  <subsites>  (771) 
1 - Active Site

>  <alias>  (771) 
C8160-P270

>  <tags>  (771) 
openbind_a71ev2a_c1_scaffolds,BulkDock Fragalysis export,openbind_a71ev2a_c1_knitwork_impure,fragmenstein_placed

>  <distance_score>  (771) 
0.902419

>  <placement_batch>  (771) 
openbind_a71ev2a_c1_knitwork_impure

>  <name>  (771) 
C8160-P270

>  <ref_mols>  (771) 
A0719a,A4020a

>  <smiles>  (771) 
CC(C)CNS(=O)(=O)N1CCCCC1

>  <HIPPO Compound ID>  (771) 
83786

>  <HIPPO Pose ID>  (771) 
486960

>  <ref_pdb>  (771) 
A4012a

$$$$
C8163-P270
     RDKit          3D

 15 15  0  0  0  0  0  0  0  0999 V2000
   11.0563   15.5119   19.8182 C   0  0  0  0  0  0  0  0  0  0  0  0
   11.3295   15.3344   20.9727 C   0  0  0  0  0  0  0  0  0  0  0  0
   11.5669   15.0598   22.3908 C   0  0  0  0  0  0  0  0  0  0  0  0
   10.7712   16.0035   23.2738 C   0  0  0  0  0  0  0  0  0  0  0  0
    9.3193   16.0463   23.0100 N   0  0  0  0  0  0  0  0  0  0  0  0
    8.3474   14.6905   23.1245 S   0  0  0  0  0  0  0  0  0  0  0  0
    8.7198   13.7603   22.0931 O   0  0  0  0  0  0  0  0  0  0  0  0
    7.0011   15.2009   23.1833 O   0  0  0  0  0  0  0  0  0  0  0  0
    8.8219   14.0251   24.6968 C   0  0  0  0  0  0  0  0  0  0  0  0
    8.2362   12.6733   25.0505 C   0  0  1  0  0  0  0  0  0  0  0  0
    6.7342   12.6865   25.3005 C   0  0  0  0  0  0  0  0  0  0  0  0
    6.3141   11.3583   25.9168 C   0  0  0  0  0  0  0  0  0  0  0  0
    6.9150   10.1460   25.2090 C   0  0  0  0  0  0  0  0  0  0  0  0
    8.3036   10.2710   24.8015 N   0  0  0  0  0  0  0  0  0  0  0  0
    8.5988   11.5242   24.1131 C   0  0  0  0  0  0  0  0  0  0  0  0
  1  2  3  0
  2  3  1  0
  3  4  1  0
  4  5  1  0
  5  6  1  0
  6  7  2  0
  6  8  2  0
  6  9  1  0
 10  9  1  6
 10 11  1  0
 11 12  1  0
 12 13  1  0
 13 14  1  0
 14 15  1  0
 15 10  1  0
M  END
>  <inchikey>  (772) 
NLTCJEMUNHLQBH-UHFFFAOYSA-N

>  <energy_score>  (772) 
-55.448376

>  <subsites>  (772) 
1 - Active Site

>  <alias>  (772) 
C8163-P270

>  <tags>  (772) 
openbind_a71ev2a_c1_scaffolds,BulkDock Fragalysis export,openbind_a71ev2a_c1_knitwork_impure,fragmenstein_placed

>  <distance_score>  (772) 
0.958102

>  <placement_batch>  (772) 
openbind_a71ev2a_c1_knitwork_impure

>  <name>  (772) 
C8163-P270

>  <ref_mols>  (772) 
A0719a,A4020a

>  <smiles>  (772) 
C#CCCNS(=O)(=O)C[C@H]1CCCNC1

>  <HIPPO Compound ID>  (772) 
21087

>  <HIPPO Pose ID>  (772) 
486962

>  <ref_pdb>  (772) 
A4012a

$$$$
C8169-P270
     RDKit          3D

 14 14  0  0  0  0  0  0  0  0999 V2000
    8.2415   14.7461   24.9084 O   0  0  0  0  0  0  0  0  0  0  0  0
    8.0999   14.2001   23.5802 S   0  0  0  0  0  0  0  0  0  0  0  0
    6.9766   14.4817   22.7249 O   0  0  0  0  0  0  0  0  0  0  0  0
    9.4622   14.5639   22.7240 N   0  0  0  0  0  0  0  0  0  0  0  0
   10.5145   15.3289   23.3963 C   0  0  0  0  0  0  0  0  0  0  0  0
   11.8177   15.1724   22.6296 C   0  0  0  0  0  0  0  0  0  0  0  0
   11.9085   16.0493   21.3913 C   0  0  0  0  0  0  0  0  0  0  0  0
   10.7194   15.6112   20.1444 Cl  0  0  0  0  0  0  0  0  0  0  0  0
    8.1802   12.5208   23.7080 N   0  0  0  0  0  0  0  0  0  0  0  0
    9.5076   11.9225   23.8580 C   0  0  0  0  0  0  0  0  0  0  0  0
    9.4180   10.4225   23.5963 C   0  0  0  0  0  0  0  0  0  0  0  0
    8.2032    9.7303   24.1738 C   0  0  0  0  0  0  0  0  0  0  0  0
    7.4040   10.5830   25.1290 C   0  0  0  0  0  0  0  0  0  0  0  0
    7.2034   12.0310   24.7204 C   0  0  0  0  0  0  0  0  0  0  0  0
  1  2  2  0
  2  3  2  0
  2  4  1  0
  4  5  1  0
  5  6  1  0
  6  7  1  0
  7  8  1  0
  2  9  1  0
  9 10  1  0
 10 11  1  0
 11 12  1  0
 12 13  1  0
 13 14  1  0
 14  9  1  0
M  END
>  <inchikey>  (773) 
ABFQQZLULDEORM-UHFFFAOYSA-N

>  <energy_score>  (773) 
-273.175268

>  <subsites>  (773) 
1 - Active Site

>  <alias>  (773) 
C8169-P270

>  <tags>  (773) 
openbind_a71ev2a_c1_scaffolds,BulkDock Fragalysis export,openbind_a71ev2a_c1_knitwork_impure,fragmenstein_placed

>  <distance_score>  (773) 
0.837633

>  <placement_batch>  (773) 
openbind_a71ev2a_c1_knitwork_impure

>  <name>  (773) 
C8169-P270

>  <ref_mols>  (773) 
A0719a,A4020a

>  <smiles>  (773) 
O=S(=O)(NCCCCl)N1CCCCC1

>  <HIPPO Compound ID>  (773) 
11213

>  <HIPPO Pose ID>  (773) 
486966

>  <ref_pdb>  (773) 
A4012a

$$$$
C8176-P270
     RDKit          3D

 15 15  0  0  0  0  0  0  0  0999 V2000
    8.3196   14.9165   25.6757 C   0  0  0  0  0  0  0  0  0  0  0  0
    8.0174   14.0178   24.4759 C   0  0  1  0  0  0  0  0  0  0  0  0
    6.5768   14.0427   24.3904 O   0  0  0  0  0  0  0  0  0  0  0  0
    8.4817   14.5397   23.0988 C   0  0  0  0  0  0  0  0  0  0  0  0
    7.8290   14.1822   22.1015 O   0  0  0  0  0  0  0  0  0  0  0  0
    9.7171   15.4133   22.9819 C   0  0  0  0  0  0  0  0  0  0  0  0
    9.7671   16.3874   23.9259 F   0  0  0  0  0  0  0  0  0  0  0  0
    9.7738   16.0451   21.7784 F   0  0  0  0  0  0  0  0  0  0  0  0
   11.3128   14.3224   23.1994 Br  0  0  0  0  0  0  0  0  0  0  0  0
    8.5147   12.5576   24.7425 C   0  0  1  0  0  0  0  0  0  0  0  0
    7.5733   11.7861   25.6818 C   0  0  0  0  0  0  0  0  0  0  0  0
    6.9021   10.5910   25.0525 C   0  0  0  0  0  0  0  0  0  0  0  0
    7.9153    9.6495   24.4237 C   0  0  0  0  0  0  0  0  0  0  0  0
    8.9354   10.3145   23.6414 N   0  0  0  0  0  0  0  0  0  0  0  0
    8.7427   11.7349   23.4666 C   0  0  0  0  0  0  0  0  0  0  0  0
  2  1  1  1
  2  3  1  0
  2  4  1  0
  4  5  2  0
  4  6  1  0
  6  7  1  0
  6  8  1  0
  6  9  1  0
  2 10  1  0
 10 11  1  1
 11 12  1  0
 12 13  1  0
 13 14  1  0
 14 15  1  0
 15 10  1  0
M  END
>  <inchikey>  (774) 
ADJXGRRNYYGIST-UHFFFAOYSA-N

>  <energy_score>  (774) 
-24.10513

>  <subsites>  (774) 
1 - Active Site

>  <alias>  (774) 
C8176-P270

>  <tags>  (774) 
openbind_a71ev2a_c1_scaffolds,BulkDock Fragalysis export,openbind_a71ev2a_c1_knitwork_impure,fragmenstein_placed

>  <distance_score>  (774) 
0.965963

>  <placement_batch>  (774) 
openbind_a71ev2a_c1_knitwork_impure

>  <name>  (774) 
C8176-P270

>  <ref_mols>  (774) 
A0719a,A4020a

>  <smiles>  (774) 
C[C@@](O)(C(=O)C(F)(F)Br)[C@H]1CCCNC1

>  <HIPPO Compound ID>  (774) 
936

>  <HIPPO Pose ID>  (774) 
486972

>  <ref_pdb>  (774) 
A4012a

$$$$
C9352-P171
     RDKit          3D

 13 13  0  0  0  0  0  0  0  0999 V2000
   12.0721   15.5020   21.4353 C   0  0  0  0  0  0  0  0  0  0  0  0
   11.2147   15.0781   22.5370 C   0  0  0  0  0  0  0  0  0  0  0  0
   10.4410   14.7352   23.3880 C   0  0  0  0  0  0  0  0  0  0  0  0
    9.4789   14.3332   24.3916 C   0  0  0  0  0  0  0  0  0  0  0  0
    9.7431   14.5664   25.5675 O   0  0  0  0  0  0  0  0  0  0  0  0
    8.1684   13.6699   23.9003 C   0  0  1  0  0  0  0  0  0  0  0  0
    7.1258   14.7621   23.6509 C   0  0  0  0  0  0  0  0  0  0  0  0
    8.3627   12.9883   22.6510 O   0  0  0  0  0  0  0  0  0  0  0  0
    7.7735   12.6091   24.9818 C   0  0  1  0  0  0  0  0  0  0  0  0
    6.7681   13.0657   26.0439 C   0  0  0  0  0  0  0  0  0  0  0  0
    6.1195   11.7819   26.5575 C   0  0  0  0  0  0  0  0  0  0  0  0
    6.7065   10.6711   25.7063 C   0  0  0  0  0  0  0  0  0  0  0  0
    7.1469   11.3628   24.5085 N   0  0  0  0  0  0  0  0  0  0  0  0
  1  2  1  0
  2  3  3  0
  3  4  1  0
  4  5  2  0
  4  6  1  0
  6  7  1  6
  6  8  1  0
  6  9  1  0
  9 10  1  1
 10 11  1  0
 11 12  1  0
 12 13  1  0
 13  9  1  0
M  END
>  <inchikey>  (775) 
NZCPRRIBNYPZPE-UHFFFAOYSA-N

>  <energy_score>  (775) 
-17.252245

>  <subsites>  (775) 
1 - Active Site

>  <alias>  (775) 
C9352-P171

>  <tags>  (775) 
openbind_a71ev2a_c1_scaffolds,BulkDock Fragalysis export,openbind_a71ev2a_c1_knitwork_impure,fragmenstein_placed

>  <distance_score>  (775) 
0.991339

>  <placement_batch>  (775) 
openbind_a71ev2a_c1_knitwork_impure

>  <name>  (775) 
C9352-P171

>  <ref_mols>  (775) 
A3581a,A0719a

>  <smiles>  (775) 
CC#CC(=O)[C@@](C)(O)[C@H]1CCCN1

>  <HIPPO Compound ID>  (775) 
9352

>  <HIPPO Pose ID>  (775) 
486978

>  <ref_pdb>  (775) 
A4012a

$$$$
C9379-P171
     RDKit          3D

 14 14  0  0  0  0  0  0  0  0999 V2000
   11.0925   15.5381   19.0080 C   0  0  0  0  0  0  0  0  0  0  0  0
   11.2619   14.7951   20.3135 C   0  0  0  0  0  0  0  0  0  0  0  0
   11.6235   15.6815   21.4993 C   0  0  0  0  0  0  0  0  0  0  0  0
   11.4323   14.9466   22.8315 C   0  0  0  0  0  0  0  0  0  0  0  0
    9.9524   14.6444   23.1012 C   0  0  0  0  0  0  0  0  0  0  0  0
    9.6942   13.9823   24.4444 C   0  0  1  0  0  0  0  0  0  0  0  0
   10.3247   14.7293   25.4938 O   0  0  0  0  0  0  0  0  0  0  0  0
    8.1970   13.9960   24.7402 C   0  0  0  0  0  0  0  0  0  0  0  0
    7.7198   14.9724   25.3423 O   0  0  0  0  0  0  0  0  0  0  0  0
    7.2834   12.8667   24.2665 C   0  0  1  0  0  0  0  0  0  0  0  0
    7.8807   11.4794   24.1891 C   0  0  0  0  0  0  0  0  0  0  0  0
    7.6651   10.9257   25.5673 C   0  0  0  0  0  0  0  0  0  0  0  0
    6.4003   11.5650   26.0837 C   0  0  0  0  0  0  0  0  0  0  0  0
    6.1828   12.7305   25.2496 N   0  0  0  0  0  0  0  0  0  0  0  0
  1  2  1  0
  2  3  1  0
  3  4  1  0
  4  5  1  0
  5  6  1  0
  6  7  1  1
  6  8  1  0
  8  9  2  0
 10  8  1  1
 10 11  1  0
 11 12  1  0
 12 13  1  0
 13 14  1  0
 14 10  1  0
M  END
>  <inchikey>  (776) 
TYSPFWQJQMFSNU-UHFFFAOYSA-N

>  <energy_score>  (776) 
-39.040037

>  <subsites>  (776) 
1 - Active Site

>  <alias>  (776) 
C9379-P171

>  <tags>  (776) 
openbind_a71ev2a_c1_scaffolds,BulkDock Fragalysis export,openbind_a71ev2a_c1_knitwork_impure,fragmenstein_placed

>  <distance_score>  (776) 
0.985944

>  <placement_batch>  (776) 
openbind_a71ev2a_c1_knitwork_impure

>  <name>  (776) 
C9379-P171

>  <ref_mols>  (776) 
A3581a,A0719a

>  <smiles>  (776) 
CCCCC[C@@H](O)C(=O)[C@H]1CCCN1

>  <HIPPO Compound ID>  (776) 
8035

>  <HIPPO Pose ID>  (776) 
486995

>  <ref_pdb>  (776) 
A4012a

$$$$
C961-P265
     RDKit          3D

 18 20  0  0  0  0  0  0  0  0999 V2000
   25.8941   12.9895   -2.4134 O   0  0  0  0  0  0  0  0  0  0  0  0
   24.9793   12.5126   -1.8612 C   0  0  0  0  0  0  0  0  0  0  0  0
   23.6311   11.9683   -2.4249 N   0  0  0  0  0  0  0  0  0  0  0  0
   23.1277   11.9877   -3.6987 N   0  0  0  0  0  0  0  0  0  0  0  0
   22.4600   10.8427   -4.0438 C   0  0  0  0  0  0  0  0  0  0  0  0
   21.8561   10.0245   -3.2404 N   0  0  0  0  0  0  0  0  0  0  0  0
   21.3503    8.8690   -4.0062 C   0  0  0  0  0  0  0  0  0  0  0  0
   21.1044    9.2718   -5.4493 C   0  0  0  0  0  0  0  0  0  0  0  0
   22.4146   10.4679   -5.7513 S   0  0  0  0  0  0  0  0  0  0  0  0
   24.9716   12.2117   -0.3537 C   0  0  1  0  0  0  0  0  0  0  0  0
   26.3361   12.4746    0.3061 C   0  0  0  0  0  0  0  0  0  0  0  0
   26.2472   12.2531    1.8211 C   0  0  0  0  0  0  0  0  0  0  0  0
   25.2292   13.2012    2.4610 C   0  0  0  0  0  0  0  0  0  0  0  0
   24.0346   13.3491    1.6629 N   0  0  0  0  0  0  0  0  0  0  0  0
   22.8689   13.9477    2.0101 C   0  0  0  0  0  0  0  0  0  0  0  0
   22.0482   13.9207    0.9835 N   0  0  0  0  0  0  0  0  0  0  0  0
   22.6929   13.2844   -0.0547 N   0  0  0  0  0  0  0  0  0  0  0  0
   23.9011   12.9637    0.3572 C   0  0  0  0  0  0  0  0  0  0  0  0
  1  2  2  0
  2  3  1  0
  3  4  1  0
  4  5  1  0
  5  6  2  0
  6  7  1  0
  7  8  1  0
  8  9  1  0
 10  2  1  6
 10 11  1  0
 11 12  1  0
 12 13  1  0
 13 14  1  0
 14 15  1  0
 15 16  2  0
 16 17  1  0
 17 18  2  0
  9  5  1  0
 18 10  1  0
 18 14  1  0
M  END
>  <inchikey>  (777) 
OMXQSZKGPNAOCE-UHFFFAOYSA-N

>  <energy_score>  (777) 
-51.2158

>  <subsites>  (777) 
6 - A0486/A/147/1,1 - Active Site

>  <alias>  (777) 
C961-P265

>  <tags>  (777) 
openbind_a71ev2a_c1_scaffolds,BulkDock Fragalysis export,openbind_a71ev2a_c1_knitwork_impure,fragmenstein_placed

>  <distance_score>  (777) 
0.514336

>  <placement_batch>  (777) 
openbind_a71ev2a_c1_knitwork_impure

>  <name>  (777) 
C961-P265

>  <ref_mols>  (777) 
A4012b,A0239a

>  <smiles>  (777) 
O=C(NNC1=NCCS1)[C@H]1CCCn2cnnc21

>  <HIPPO Compound ID>  (777) 
1447

>  <HIPPO Pose ID>  (777) 
487262

>  <ref_pdb>  (777) 
A4012a

$$$$
C25757-P277
     RDKit          3D

 15 15  0  0  0  0  0  0  0  0999 V2000
   12.2474   16.1931   22.2359 C   0  0  0  0  0  0  0  0  0  0  0  0
   11.5611   15.1170   21.4378 C   0  0  0  0  0  0  0  0  0  0  0  0
   11.5397   15.4700   20.1309 F   0  0  0  0  0  0  0  0  0  0  0  0
   12.3030   13.9837   21.5290 F   0  0  0  0  0  0  0  0  0  0  0  0
   10.1497   14.7948   21.8998 C   0  0  0  0  0  0  0  0  0  0  0  0
   10.1212   14.3485   23.3634 C   0  0  0  0  0  0  0  0  0  0  0  0
    8.8901   13.5006   23.6707 C   0  0  0  0  0  0  0  0  0  0  0  0
    8.7932   13.0481   25.1374 C   0  0  2  0  0  0  0  0  0  0  0  0
    8.6025   14.2534   26.0548 C   0  0  0  0  0  0  0  0  0  0  0  0
    9.9798   12.4550   25.4584 F   0  0  0  0  0  0  0  0  0  0  0  0
    7.6439   12.0093   25.2913 C   0  0  1  0  0  0  0  0  0  0  0  0
    8.0453   10.6188   24.8120 C   0  0  0  0  0  0  0  0  0  0  0  0
    7.0317    9.6876   25.4454 C   0  0  0  0  0  0  0  0  0  0  0  0
    6.3415   10.5024   26.5188 C   0  0  0  0  0  0  0  0  0  0  0  0
    7.1575   11.7102   26.6567 N   0  0  0  0  0  0  0  0  0  0  0  0
  1  2  1  0
  2  3  1  0
  2  4  1  0
  2  5  1  0
  5  6  1  0
  6  7  1  0
  7  8  1  0
  8  9  1  1
  8 10  1  0
  8 11  1  0
 11 12  1  1
 12 13  1  0
 13 14  1  0
 14 15  1  0
 15 11  1  0
M  END
>  <inchikey>  (778) 
YKFFHGCNYWTCOY-UHFFFAOYSA-N

>  <energy_score>  (778) 
-20.340162

>  <subsites>  (778) 
1 - Active Site

>  <alias>  (778) 
C25757-P277

>  <tags>  (778) 
openbind_a71ev2a_c1_scaffolds,BulkDock Fragalysis export,openbind_a71ev2a_c1_knitwork_impure,fragmenstein_placed

>  <distance_score>  (778) 
0.99217

>  <placement_batch>  (778) 
openbind_a71ev2a_c1_knitwork_impure

>  <name>  (778) 
C25757-P277

>  <ref_mols>  (778) 
A1779a,A4032b

>  <smiles>  (778) 
CC(F)(F)CCC[C@](C)(F)[C@H]1CCCN1

>  <HIPPO Compound ID>  (778) 
8159

>  <HIPPO Pose ID>  (778) 
487286

>  <ref_pdb>  (778) 
A4012a

$$$$
C842-P405
     RDKit          3D

 22 25  0  0  0  0  0  0  0  0999 V2000
   32.2196   21.8912   21.9331 C   0  0  0  0  0  0  0  0  0  0  0  0
   33.1066   20.8694   21.5743 C   0  0  0  0  0  0  0  0  0  0  0  0
   33.1407   20.4904   20.2509 C   0  0  0  0  0  0  0  0  0  0  0  0
   32.3622   21.1108   19.3036 C   0  0  0  0  0  0  0  0  0  0  0  0
   31.4964   22.1343   19.6240 C   0  0  0  0  0  0  0  0  0  0  0  0
   31.3977   22.5193   20.9687 C   0  0  0  0  0  0  0  0  0  0  0  0
   30.4567   23.5633   21.3800 C   0  0  0  0  0  0  0  0  0  0  0  0
   30.8194   24.4918   22.2833 N   0  0  0  0  0  0  0  0  0  0  0  0
   29.7547   25.2957   22.3833 N   0  0  0  0  0  0  0  0  0  0  0  0
   28.7092   24.9191   21.6061 C   0  0  0  0  0  0  0  0  0  0  0  0
   29.1056   23.7735   20.9422 C   0  0  0  0  0  0  0  0  0  0  0  0
   28.3197   22.9559   19.9683 C   0  0  0  0  0  0  0  0  0  0  0  0
   26.8874   22.9831   20.2836 N   0  0  0  0  0  0  0  0  0  0  0  0
   26.5222   22.0743   21.3846 C   0  0  0  0  0  0  0  0  0  0  0  0
   26.4342   20.6171   20.9240 C   0  0  0  0  0  0  0  0  0  0  0  0
   25.9037   19.7102   22.0307 C   0  0  0  0  0  0  0  0  0  0  0  0
   24.6035   20.1596   22.5362 N   0  0  0  0  0  0  0  0  0  0  0  0
   24.6681   21.5433   23.0040 C   0  0  0  0  0  0  0  0  0  0  0  0
   25.1517   22.5056   21.9221 C   0  0  0  0  0  0  0  0  0  0  0  0
   32.5511   20.6002   18.0586 O   0  0  0  0  0  0  0  0  0  0  0  0
   33.4625   19.5208   18.3458 C   0  0  0  0  0  0  0  0  0  0  0  0
   33.9055   19.4973   19.7233 O   0  0  0  0  0  0  0  0  0  0  0  0
  1  2  2  0
  2  3  1  0
  3  4  2  0
  4  5  1  0
  5  6  2  0
  6  7  1  0
  7  8  2  0
  8  9  1  0
  9 10  1  0
 10 11  2  0
 11 12  1  0
 12 13  1  0
 13 14  1  0
 14 15  1  0
 15 16  1  0
 16 17  1  0
 17 18  1  0
 18 19  1  0
  4 20  1  0
 20 21  1  0
 21 22  1  0
  6  1  1  0
 11  7  1  0
 19 14  1  0
 22  3  1  0
M  END
>  <inchikey>  (779) 
OWOZFTOSAOYWMO-UHFFFAOYSA-N

>  <energy_score>  (779) 
-42.402628

>  <subsites>  (779) 
1 - Active Site,5 - A3181/A/202/1

>  <alias>  (779) 
C842-P405

>  <tags>  (779) 
openbind_a71ev2a_c1_scaffolds,BulkDock Fragalysis export,openbind_a71ev2a_c1_knitwork_impure,fragmenstein_placed

>  <distance_score>  (779) 
0.998273

>  <placement_batch>  (779) 
openbind_a71ev2a_c1_knitwork_impure

>  <name>  (779) 
C842-P405

>  <ref_mols>  (779) 
A0351b,A4570a

>  <smiles>  (779) 
c1cc2c(cc1-c1n[nH]cc1CNC1CCNCC1)OCO2

>  <HIPPO Compound ID>  (779) 
7230

>  <HIPPO Pose ID>  (779) 
487305

>  <ref_pdb>  (779) 
A4012a

$$$$
C901-P405
     RDKit          3D

 23 26  0  0  0  0  0  0  0  0999 V2000
   26.0208   16.4861   24.9219 O   0  0  0  0  0  0  0  0  0  0  0  0
   25.1795   17.2938   25.0201 C   0  0  0  0  0  0  0  0  0  0  0  0
   25.3325   18.7067   24.4758 C   0  0  0  0  0  0  0  0  0  0  0  0
   24.3916   19.0094   23.3106 C   0  0  0  0  0  0  0  0  0  0  0  0
   24.9529   20.1184   22.4563 C   0  0  0  0  0  0  0  0  0  0  0  0
   24.4555   21.4350   22.5454 C   0  0  0  0  0  0  0  0  0  0  0  0
   25.0213   22.4649   21.7847 C   0  0  0  0  0  0  0  0  0  0  0  0
   26.0755   22.1505   20.9538 C   0  0  0  0  0  0  0  0  0  0  0  0
   26.5652   20.8723   20.8633 C   0  0  0  0  0  0  0  0  0  0  0  0
   26.0249   19.8391   21.5940 C   0  0  0  0  0  0  0  0  0  0  0  0
   27.6101   20.7727   20.0015 O   0  0  0  0  0  0  0  0  0  0  0  0
   27.6798   22.1224   19.5079 C   0  0  0  0  0  0  0  0  0  0  0  0
   26.7476   23.0192   20.1516 O   0  0  0  0  0  0  0  0  0  0  0  0
   23.8065   17.2341   25.7432 N   0  0  0  0  0  0  0  0  0  0  0  0
   23.1865   16.2053   26.3714 C   0  0  0  0  0  0  0  0  0  0  0  0
   23.6753   14.9007   26.5782 C   0  0  0  0  0  0  0  0  0  0  0  0
   22.6795   14.2569   27.2752 C   0  0  0  0  0  0  0  0  0  0  0  0
   21.6703   15.1695   27.4065 N   0  0  0  0  0  0  0  0  0  0  0  0
   20.4358   14.9328   28.1772 C   0  0  0  0  0  0  0  0  0  0  0  0
   19.7342   13.5871   27.8626 C   0  0  0  0  0  0  0  0  0  0  0  0
   18.3980   14.3525   27.9716 C   0  0  0  0  0  0  0  0  0  0  0  0
   19.1838   15.6178   27.5688 C   0  0  0  0  0  0  0  0  0  0  0  0
   21.9789   16.3786   26.9063 N   0  0  0  0  0  0  0  0  0  0  0  0
  1  2  2  0
  2  3  1  0
  3  4  1  0
  4  5  1  0
  5  6  2  0
  6  7  1  0
  7  8  2  0
  8  9  1  0
  9 10  2  0
  9 11  1  0
 11 12  1  0
 12 13  1  0
  2 14  1  0
 14 15  1  0
 15 16  1  0
 16 17  2  0
 17 18  1  0
 18 19  1  0
 19 20  1  0
 20 21  1  0
 21 22  1  0
 18 23  1  0
 10  5  1  0
 23 15  2  0
 13  8  1  0
 22 19  1  0
M  END
>  <inchikey>  (780) 
DAXDOXZPNQGVDA-UHFFFAOYSA-N

>  <energy_score>  (780) 
-49.373895

>  <subsites>  (780) 
1 - Active Site,5 - A3181/A/202/1

>  <alias>  (780) 
C901-P405

>  <tags>  (780) 
openbind_a71ev2a_c1_scaffolds,BulkDock Fragalysis export,openbind_a71ev2a_c1_knitwork_impure,fragmenstein_placed

>  <distance_score>  (780) 
0.871589

>  <placement_batch>  (780) 
openbind_a71ev2a_c1_knitwork_impure

>  <name>  (780) 
C901-P405

>  <ref_mols>  (780) 
A0351b,A4570a

>  <smiles>  (780) 
O=C(CCc1ccc2c(c1)OCO2)Nc1ccn(C2CCC2)n1

>  <HIPPO Compound ID>  (780) 
901

>  <HIPPO Pose ID>  (780) 
487315

>  <ref_pdb>  (780) 
A4012a

$$$$
C83889-P135
     RDKit          3D

 18 20  0  0  0  0  0  0  0  0999 V2000
    9.8099   14.3449   24.3500 Cl  0  0  0  0  0  0  0  0  0  0  0  0
    9.6230   12.6788   24.0862 C   0  0  0  0  0  0  0  0  0  0  0  0
    8.7178   12.0090   24.9088 C   0  0  0  0  0  0  0  0  0  0  0  0
    8.4855   10.6812   24.8636 N   0  0  0  0  0  0  0  0  0  0  0  0
    9.1996   10.0043   23.9407 C   0  0  0  0  0  0  0  0  0  0  0  0
   10.1229   10.5936   23.0804 C   0  0  0  0  0  0  0  0  0  0  0  0
   10.3588   11.9741   23.1262 C   0  0  0  0  0  0  0  0  0  0  0  0
   11.3719   12.5353   22.3043 N   0  0  0  0  0  0  0  0  0  0  0  0
   11.0062   13.6548   21.4017 C   0  0  0  0  0  0  0  0  0  0  0  0
   12.1467   14.5857   21.0395 C   0  0  0  0  0  0  0  0  0  0  0  0
   12.9296   15.0879   22.0617 C   0  0  0  0  0  0  0  0  0  0  0  0
   13.8399   16.1108   21.8278 C   0  0  0  0  0  0  0  0  0  0  0  0
   13.9698   16.8079   20.6530 C   0  0  0  0  0  0  0  0  0  0  0  0
   13.2780   16.2808   19.5905 C   0  0  0  0  0  0  0  0  0  0  0  0
   13.2762   16.6692   18.2397 C   0  0  0  0  0  0  0  0  0  0  0  0
   12.3973   15.8392   17.6140 C   0  0  0  0  0  0  0  0  0  0  0  0
   11.9364   14.9227   18.5217 N   0  0  0  0  0  0  0  0  0  0  0  0
   12.4256   15.1815   19.7766 C   0  0  0  0  0  0  0  0  0  0  0  0
  1  2  1  0
  2  3  2  0
  3  4  1  0
  4  5  2  0
  5  6  1  0
  6  7  2  0
  7  8  1  0
  8  9  1  0
  9 10  1  0
 10 11  2  0
 11 12  1  0
 12 13  2  0
 13 14  1  0
 14 15  1  0
 15 16  2  0
 16 17  1  0
 17 18  1  0
  7  2  1  0
 18 10  1  0
 18 14  2  0
M  END
>  <inchikey>  (781) 
NNLIRPSRTSJYLQ-UHFFFAOYSA-N

>  <energy_score>  (781) 
-331.434031

>  <subsites>  (781) 
1 - Active Site

>  <alias>  (781) 
C83889-P135

>  <tags>  (781) 
openbind_a71ev2a_c1_scaffolds,BulkDock Fragalysis export,openbind_a71ev2a_c1_knitwork_impure,fragmenstein_placed

>  <distance_score>  (781) 
0.886406

>  <placement_batch>  (781) 
openbind_a71ev2a_c1_knitwork_impure

>  <name>  (781) 
C83889-P135

>  <ref_mols>  (781) 
A3568a,A2629a

>  <smiles>  (781) 
Clc1cnccc1NCc1cccc2cc[nH]c12

>  <HIPPO Compound ID>  (781) 
8486

>  <HIPPO Pose ID>  (781) 
487673

>  <ref_pdb>  (781) 
A4012a

$$$$
C53105-P135
     RDKit          3D

 18 20  0  0  0  0  0  0  0  0999 V2000
   10.0575   13.7630   24.9641 C   0  0  0  0  0  0  0  0  0  0  0  0
    9.6894   12.4196   24.4539 C   0  0  0  0  0  0  0  0  0  0  0  0
    8.6980   11.7174   25.1379 C   0  0  0  0  0  0  0  0  0  0  0  0
    8.3612   10.4437   24.8797 N   0  0  0  0  0  0  0  0  0  0  0  0
    9.0525    9.8480   23.8855 C   0  0  0  0  0  0  0  0  0  0  0  0
   10.0188   10.4791   23.1155 C   0  0  0  0  0  0  0  0  0  0  0  0
   10.3362   11.8137   23.3645 C   0  0  0  0  0  0  0  0  0  0  0  0
   11.3475   12.4454   22.5891 N   0  0  0  0  0  0  0  0  0  0  0  0
   10.9254   13.6832   21.9304 C   0  0  0  0  0  0  0  0  0  0  0  0
   11.9760   14.3510   21.0678 C   0  0  0  0  0  0  0  0  0  0  0  0
   12.0012   14.1517   19.6857 C   0  0  0  0  0  0  0  0  0  0  0  0
   12.6430   15.0331   18.8115 C   0  0  0  0  0  0  0  0  0  0  0  0
   13.3110   16.1410   19.3361 C   0  0  0  0  0  0  0  0  0  0  0  0
   13.9935   17.2491   18.7706 C   0  0  0  0  0  0  0  0  0  0  0  0
   14.4507   18.0247   19.8097 C   0  0  0  0  0  0  0  0  0  0  0  0
   14.1063   17.3978   20.9747 N   0  0  0  0  0  0  0  0  0  0  0  0
   13.3673   16.2752   20.7194 C   0  0  0  0  0  0  0  0  0  0  0  0
   12.7470   15.3850   21.6044 C   0  0  0  0  0  0  0  0  0  0  0  0
  1  2  1  0
  2  3  2  0
  3  4  1  0
  4  5  2  0
  5  6  1  0
  6  7  2  0
  7  8  1  0
  8  9  1  0
  9 10  1  0
 10 11  2  0
 11 12  1  0
 12 13  2  0
 13 14  1  0
 14 15  2  0
 15 16  1  0
 16 17  1  0
 17 18  2  0
  7  2  1  0
 18 10  1  0
 17 13  1  0
M  END
>  <inchikey>  (782) 
WYTLJIODCWWXCM-UHFFFAOYSA-N

>  <energy_score>  (782) 
-11.979469

>  <subsites>  (782) 
1 - Active Site

>  <alias>  (782) 
C53105-P135

>  <tags>  (782) 
openbind_a71ev2a_c1_scaffolds,BulkDock Fragalysis export,openbind_a71ev2a_c1_knitwork_impure,fragmenstein_placed

>  <distance_score>  (782) 
0.969415

>  <placement_batch>  (782) 
openbind_a71ev2a_c1_knitwork_impure

>  <name>  (782) 
C53105-P135

>  <ref_mols>  (782) 
A3568a,A2629a

>  <smiles>  (782) 
Cc1cnccc1NCc1ccc2cc[nH]c2c1

>  <HIPPO Compound ID>  (782) 
53105

>  <HIPPO Pose ID>  (782) 
487675

>  <ref_pdb>  (782) 
A4012a

$$$$
C7492-P161
     RDKit          3D

 14 14  0  0  0  0  0  0  0  0999 V2000
   12.3266   15.8646   21.8868 C   0  0  0  0  0  0  0  0  0  0  0  0
   12.0083   14.9238   23.0471 C   0  0  0  0  0  0  0  0  0  0  0  0
   10.8197   15.3623   23.8997 C   0  0  0  0  0  0  0  0  0  0  0  0
    9.4208   15.2254   23.2729 C   0  0  2  0  0  0  0  0  0  0  0  0
    8.7788   13.8236   23.4079 C   0  0  0  0  0  0  0  0  0  0  0  0
    8.5372   13.4562   24.8236 N   0  0  0  0  0  0  0  0  0  0  0  0
    7.4278   12.5074   24.8683 N   0  0  0  0  0  0  0  0  0  0  0  0
    7.8954   11.1535   24.5624 C   0  0  0  0  0  0  0  0  0  0  0  0
    7.4815   10.0876   25.5554 C   0  0  0  0  0  0  0  0  0  0  0  0
    6.0757   10.1780   26.1073 C   0  0  0  0  0  0  0  0  0  0  0  0
    5.6180   11.6023   26.3707 C   0  0  0  0  0  0  0  0  0  0  0  0
    6.7059   12.6441   26.1362 C   0  0  0  0  0  0  0  0  0  0  0  0
    9.3737   15.7978   21.9671 O   0  0  0  0  0  0  0  0  0  0  0  0
    9.5262   14.9105   20.8775 C   0  0  0  0  0  0  0  0  0  0  0  0
  1  2  1  0
  2  3  1  0
  4  3  1  6
  4  5  1  0
  5  6  1  0
  6  7  1  0
  7  8  1  0
  8  9  1  0
  9 10  1  0
 10 11  1  0
 11 12  1  0
  4 13  1  0
 13 14  1  0
 12  7  1  0
M  END
>  <inchikey>  (783) 
UENQPBXXWCZQQQ-UHFFFAOYSA-N

>  <energy_score>  (783) 
-25.454576

>  <subsites>  (783) 
1 - Active Site

>  <alias>  (783) 
C7492-P161

>  <tags>  (783) 
openbind_a71ev2a_c1_scaffolds,BulkDock Fragalysis export,openbind_a71ev2a_c1_knitwork_impure,fragmenstein_placed

>  <distance_score>  (783) 
0.888115

>  <placement_batch>  (783) 
openbind_a71ev2a_c1_knitwork_impure

>  <name>  (783) 
C7492-P161

>  <ref_mols>  (783) 
A1445a,A3229a

>  <smiles>  (783) 
CCC[C@H](CNN1CCCCC1)OC

>  <HIPPO Compound ID>  (783) 
5289

>  <HIPPO Pose ID>  (783) 
487785

>  <ref_pdb>  (783) 
A4012a

$$$$
C38594-P122
     RDKit          3D

 13 13  0  0  0  0  0  0  0  0999 V2000
    7.2709   12.1459   26.6798 C   0  0  0  0  0  0  0  0  0  0  0  0
    7.2583   11.3272   25.4002 C   0  0  0  0  0  0  0  0  0  0  0  0
    8.5903   10.6670   25.0620 C   0  0  0  0  0  0  0  0  0  0  0  0
    9.6225   11.4575   24.3048 C   0  0  0  0  0  0  0  0  0  0  0  0
   10.6633   10.9036   23.9476 O   0  0  0  0  0  0  0  0  0  0  0  0
    9.3432   12.9243   24.0813 C   0  0  0  0  0  0  0  0  0  0  0  0
   10.4228   13.6066   23.4289 N   0  0  0  0  0  0  0  0  0  0  0  0
   10.5841   13.3152   22.0143 C   0  0  0  0  0  0  0  0  0  0  0  0
   11.8060   13.9016   21.3504 C   0  0  0  0  0  0  0  0  0  0  0  0
   12.2787   15.1049   22.1192 C   0  0  0  0  0  0  0  0  0  0  0  0
   12.6422   14.6266   23.5129 C   0  0  0  0  0  0  0  0  0  0  0  0
   11.4218   14.1282   24.2288 C   0  0  0  0  0  0  0  0  0  0  0  0
   11.3512   14.1453   25.4582 O   0  0  0  0  0  0  0  0  0  0  0  0
  1  2  1  0
  2  3  1  0
  3  4  1  0
  4  5  2  0
  4  6  1  0
  6  7  1  0
  7  8  1  0
  8  9  1  0
  9 10  1  0
 10 11  1  0
 11 12  1  0
 12 13  2  0
 12  7  1  0
M  END
>  <inchikey>  (784) 
NLXFVKOJESFEML-UHFFFAOYSA-N

>  <energy_score>  (784) 
-20.672398

>  <subsites>  (784) 
1 - Active Site

>  <alias>  (784) 
C38594-P122

>  <tags>  (784) 
openbind_a71ev2a_c1_scaffolds,BulkDock Fragalysis export,openbind_a71ev2a_c1_knitwork_impure,fragmenstein_placed

>  <distance_score>  (784) 
0.893614

>  <placement_batch>  (784) 
openbind_a71ev2a_c1_knitwork_impure

>  <name>  (784) 
C38594-P122

>  <ref_mols>  (784) 
A1775a,A4563a

>  <smiles>  (784) 
CCCC(=O)CN1CCCCC1=O

>  <HIPPO Compound ID>  (784) 
1404

>  <HIPPO Pose ID>  (784) 
487885

>  <ref_pdb>  (784) 
A4012a

$$$$
C38598-P404
     RDKit          3D

 13 13  0  0  0  0  0  0  0  0999 V2000
    7.1092   12.4676   26.0593 C   0  0  0  0  0  0  0  0  0  0  0  0
    7.9950   11.3889   25.7681 O   0  0  0  0  0  0  0  0  0  0  0  0
    8.3490   11.3645   24.3968 C   0  0  2  0  0  0  0  0  0  0  0  0
    8.9018   10.0040   24.0406 C   0  0  0  0  0  0  0  0  0  0  0  0
    9.3948   12.3795   24.0262 C   0  0  0  0  0  0  0  0  0  0  0  0
    9.1242   13.2566   23.1186 N   0  0  0  0  0  0  0  0  0  0  0  0
   10.1330   14.1266   22.7737 N   0  0  0  0  0  0  0  0  0  0  0  0
    9.9856   14.7111   21.4448 C   0  0  0  0  0  0  0  0  0  0  0  0
   11.3325   15.0584   20.8474 C   0  0  0  0  0  0  0  0  0  0  0  0
   11.9910   16.0666   21.7631 C   0  0  0  0  0  0  0  0  0  0  0  0
   12.1164   15.5484   23.1813 C   0  0  0  0  0  0  0  0  0  0  0  0
   10.9992   14.6817   23.7189 C   0  0  0  0  0  0  0  0  0  0  0  0
   10.9742   14.4425   24.9320 O   0  0  0  0  0  0  0  0  0  0  0  0
  1  2  1  0
  2  3  1  0
  3  4  1  1
  3  5  1  0
  5  6  2  3
  6  7  1  0
  7  8  1  0
  8  9  1  0
  9 10  1  0
 10 11  1  0
 11 12  1  0
 12 13  2  0
 12  7  1  0
M  END
>  <inchikey>  (785) 
FHBGUWZYHVFIEX-UHFFFAOYSA-N

>  <energy_score>  (785) 
-30.332322

>  <subsites>  (785) 
1 - Active Site

>  <alias>  (785) 
C38598-P404

>  <tags>  (785) 
openbind_a71ev2a_c1_scaffolds,BulkDock Fragalysis export,openbind_a71ev2a_c1_knitwork_impure,fragmenstein_placed

>  <distance_score>  (785) 
0.813754

>  <placement_batch>  (785) 
openbind_a71ev2a_c1_knitwork_impure

>  <name>  (785) 
C38598-P404

>  <ref_mols>  (785) 
A1775a,A4563a

>  <smiles>  (785) 
CO[C@H](C)C=NN1CCCCC1=O

>  <HIPPO Compound ID>  (785) 
38598

>  <HIPPO Pose ID>  (785) 
487887

>  <ref_pdb>  (785) 
A4012a

$$$$
C89701-P12
     RDKit          3D

 24 27  0  0  0  0  0  0  0  0999 V2000
   16.2931  -10.5557   16.7163 C   0  0  0  0  0  0  0  0  0  0  0  0
   16.1672   -9.2581   15.9389 C   0  0  0  0  0  0  0  0  0  0  0  0
   17.0419   -8.2249   16.4602 N   0  0  0  0  0  0  0  0  0  0  0  0
   16.5532   -7.3577   17.3636 N   0  0  0  0  0  0  0  0  0  0  0  0
   17.5834   -6.5499   17.6313 C   0  0  0  0  0  0  0  0  0  0  0  0
   17.3093   -5.4253   18.3536 N   0  0  0  0  0  0  0  0  0  0  0  0
   18.2747   -4.3945   19.0393 C   0  0  0  0  0  0  0  0  0  0  0  0
   19.4414   -4.4044   19.1489 O   0  0  0  0  0  0  0  0  0  0  0  0
   17.3610   -3.2576   19.4746 C   0  0  0  0  0  0  0  0  0  0  0  0
   17.9706   -2.2237   20.2834 N   0  0  0  0  0  0  0  0  0  0  0  0
   17.7161   -0.9255   19.9936 N   0  0  0  0  0  0  0  0  0  0  0  0
   18.2251   -0.1905   20.9738 N   0  0  0  0  0  0  0  0  0  0  0  0
   18.7139   -1.0383   21.9316 C   0  0  0  0  0  0  0  0  0  0  0  0
   19.2980   -0.7716   23.1780 C   0  0  0  0  0  0  0  0  0  0  0  0
   19.6474   -1.8540   23.9965 C   0  0  0  0  0  0  0  0  0  0  0  0
   19.4208   -3.1690   23.5821 C   0  0  0  0  0  0  0  0  0  0  0  0
   18.8540   -3.4516   22.3347 C   0  0  0  0  0  0  0  0  0  0  0  0
   18.5224   -2.3557   21.5321 C   0  0  0  0  0  0  0  0  0  0  0  0
   18.7534   -6.9229   16.9098 C   0  0  0  0  0  0  0  0  0  0  0  0
   20.0609   -6.4255   16.7392 C   0  0  0  0  0  0  0  0  0  0  0  0
   20.8890   -6.9685   15.7497 C   0  0  0  0  0  0  0  0  0  0  0  0
   20.4399   -8.0054   14.9384 C   0  0  0  0  0  0  0  0  0  0  0  0
   19.1583   -8.5375   15.0986 C   0  0  0  0  0  0  0  0  0  0  0  0
   18.3360   -7.9712   16.0853 C   0  0  0  0  0  0  0  0  0  0  0  0
  1  2  1  0
  2  3  1  0
  3  4  1  0
  4  5  2  0
  5  6  1  0
  6  7  1  0
  7  8  2  0
  7  9  1  0
  9 10  1  0
 10 11  1  0
 11 12  2  0
 12 13  1  0
 13 14  2  0
 14 15  1  0
 15 16  2  0
 16 17  1  0
 17 18  2  0
  5 19  1  0
 19 20  2  0
 20 21  1  0
 21 22  2  0
 22 23  1  0
 23 24  2  0
 24  3  1  0
 18 10  1  0
 24 19  1  0
 18 13  1  0
M  END
>  <inchikey>  (786) 
FMCDEJOHQRDQTM-UHFFFAOYSA-N

>  <energy_score>  (786) 
-31.50182

>  <subsites>  (786) 
2 - A3977/A/202/1

>  <alias>  (786) 
C89701-P12

>  <tags>  (786) 
openbind_a71ev2a_c1_scaffolds,BulkDock Fragalysis export,openbind_a71ev2a_c1_knitwork_impure,fragmenstein_placed

>  <distance_score>  (786) 
0.656275

>  <placement_batch>  (786) 
openbind_a71ev2a_c1_knitwork_impure

>  <name>  (786) 
C89701-P12

>  <ref_mols>  (786) 
A0497a,A1293a

>  <smiles>  (786) 
CCn1nc(NC(=O)Cn2nnc3ccccc32)c2ccccc21

>  <HIPPO Compound ID>  (786) 
25770

>  <HIPPO Pose ID>  (786) 
488155

>  <ref_pdb>  (786) 
A4012a

$$$$
C89709-P12
     RDKit          3D

 22 25  0  0  0  0  0  0  0  0999 V2000
   20.6564   -5.0146   19.8365 O   0  0  0  0  0  0  0  0  0  0  0  0
   19.5527   -4.6518   19.9675 C   0  0  0  0  0  0  0  0  0  0  0  0
   18.2524   -5.1289   19.2797 N   0  0  0  0  0  0  0  0  0  0  0  0
   18.0595   -6.0397   18.2699 C   0  0  0  0  0  0  0  0  0  0  0  0
   16.8306   -6.5416   18.0845 N   0  0  0  0  0  0  0  0  0  0  0  0
   16.9556   -7.3487   17.0185 N   0  0  0  0  0  0  0  0  0  0  0  0
   18.2044   -7.3704   16.4665 C   0  0  0  0  0  0  0  0  0  0  0  0
   18.6992   -7.9952   15.3143 C   0  0  0  0  0  0  0  0  0  0  0  0
   20.0326   -7.7506   14.9924 C   0  0  0  0  0  0  0  0  0  0  0  0
   20.5449   -8.3096   13.8868 F   0  0  0  0  0  0  0  0  0  0  0  0
   20.8417   -6.9473   15.7845 C   0  0  0  0  0  0  0  0  0  0  0  0
   20.3273   -6.3476   16.9430 C   0  0  0  0  0  0  0  0  0  0  0  0
   18.9754   -6.5512   17.2938 C   0  0  0  0  0  0  0  0  0  0  0  0
   19.2318   -3.6186   21.0278 C   0  0  0  0  0  0  0  0  0  0  0  0
   19.8321   -3.7733   22.2348 C   0  0  0  0  0  0  0  0  0  0  0  0
   19.8071   -2.7342   23.2593 C   0  0  0  0  0  0  0  0  0  0  0  0
   19.2505   -1.5501   22.9588 C   0  0  0  0  0  0  0  0  0  0  0  0
   18.6316   -1.3994   21.7227 N   0  0  0  0  0  0  0  0  0  0  0  0
   18.0041   -0.3180   21.1751 C   0  0  0  0  0  0  0  0  0  0  0  0
   17.4286   -0.6604   20.0452 N   0  0  0  0  0  0  0  0  0  0  0  0
   17.7512   -1.9787   19.7922 N   0  0  0  0  0  0  0  0  0  0  0  0
   18.5215   -2.4083   20.7703 C   0  0  0  0  0  0  0  0  0  0  0  0
  1  2  2  0
  2  3  1  0
  3  4  1  0
  4  5  2  0
  5  6  1  0
  6  7  1  0
  7  8  2  0
  8  9  1  0
  9 10  1  0
  9 11  2  0
 11 12  1  0
 12 13  2  0
  2 14  1  0
 14 15  2  0
 15 16  1  0
 16 17  2  0
 17 18  1  0
 18 19  1  0
 19 20  2  0
 20 21  1  0
 21 22  2  0
 13  4  1  0
 22 14  1  0
 13  7  1  0
 22 18  1  0
M  END
>  <inchikey>  (787) 
XRENEVZHQOBHPU-UHFFFAOYSA-N

>  <energy_score>  (787) 
-32.959286

>  <subsites>  (787) 
2 - A3977/A/202/1

>  <alias>  (787) 
C89709-P12

>  <tags>  (787) 
openbind_a71ev2a_c1_scaffolds,BulkDock Fragalysis export,openbind_a71ev2a_c1_knitwork_impure,fragmenstein_placed

>  <distance_score>  (787) 
0.965439

>  <placement_batch>  (787) 
openbind_a71ev2a_c1_knitwork_impure

>  <name>  (787) 
C89709-P12

>  <ref_mols>  (787) 
A0497a,A1293a

>  <smiles>  (787) 
O=C(Nc1n[nH]c2cc(F)ccc12)c1cccn2cnnc12

>  <HIPPO Compound ID>  (787) 
89709

>  <HIPPO Pose ID>  (787) 
488163

>  <ref_pdb>  (787) 
A4012a

$$$$
C89730-P12
     RDKit          3D

 22 25  0  0  0  0  0  0  0  0999 V2000
   15.7916   -8.1283   16.5982 C   0  0  0  0  0  0  0  0  0  0  0  0
   16.9538   -7.3921   17.0329 N   0  0  0  0  0  0  0  0  0  0  0  0
   16.8381   -6.5694   18.0918 N   0  0  0  0  0  0  0  0  0  0  0  0
   18.0666   -6.0627   18.2605 C   0  0  0  0  0  0  0  0  0  0  0  0
   18.2551   -5.1517   19.2731 N   0  0  0  0  0  0  0  0  0  0  0  0
   19.5577   -4.5888   19.8890 C   0  0  0  0  0  0  0  0  0  0  0  0
   20.6746   -4.8680   19.6854 O   0  0  0  0  0  0  0  0  0  0  0  0
   19.2242   -3.5975   20.9809 C   0  0  0  0  0  0  0  0  0  0  0  0
   19.8240   -3.7814   22.1835 C   0  0  0  0  0  0  0  0  0  0  0  0
   19.7966   -2.7656   23.2316 C   0  0  0  0  0  0  0  0  0  0  0  0
   19.2435   -1.5735   22.9559 C   0  0  0  0  0  0  0  0  0  0  0  0
   18.6272   -1.3942   21.7220 N   0  0  0  0  0  0  0  0  0  0  0  0
   18.0037   -0.3002   21.1952 C   0  0  0  0  0  0  0  0  0  0  0  0
   17.4279   -0.6185   20.0583 N   0  0  0  0  0  0  0  0  0  0  0  0
   17.7471   -1.9318   19.7790 N   0  0  0  0  0  0  0  0  0  0  0  0
   18.5158   -2.3821   20.7489 C   0  0  0  0  0  0  0  0  0  0  0  0
   18.9726   -6.5773   17.2776 C   0  0  0  0  0  0  0  0  0  0  0  0
   20.3195   -6.3718   16.9139 C   0  0  0  0  0  0  0  0  0  0  0  0
   20.8371   -6.9863   15.7656 C   0  0  0  0  0  0  0  0  0  0  0  0
   20.0413   -7.8157   14.9818 C   0  0  0  0  0  0  0  0  0  0  0  0
   18.7078   -8.0552   15.3220 C   0  0  0  0  0  0  0  0  0  0  0  0
   18.2002   -7.4136   16.4656 C   0  0  0  0  0  0  0  0  0  0  0  0
  1  2  1  0
  2  3  1  0
  3  4  2  0
  4  5  1  0
  5  6  1  0
  6  7  2  0
  6  8  1  0
  8  9  2  0
  9 10  1  0
 10 11  2  0
 11 12  1  0
 12 13  1  0
 13 14  2  0
 14 15  1  0
 15 16  2  0
  4 17  1  0
 17 18  2  0
 18 19  1  0
 19 20  2  0
 20 21  1  0
 21 22  2  0
 22  2  1  0
 16  8  1  0
 22 17  1  0
 16 12  1  0
M  END
>  <inchikey>  (788) 
TUCJJOTTXFGEGV-UHFFFAOYSA-N

>  <energy_score>  (788) 
-40.928021

>  <subsites>  (788) 
2 - A3977/A/202/1

>  <alias>  (788) 
C89730-P12

>  <tags>  (788) 
openbind_a71ev2a_c1_scaffolds,BulkDock Fragalysis export,openbind_a71ev2a_c1_knitwork_impure,fragmenstein_placed

>  <distance_score>  (788) 
0.969433

>  <placement_batch>  (788) 
openbind_a71ev2a_c1_knitwork_impure

>  <name>  (788) 
C89730-P12

>  <ref_mols>  (788) 
A0497a,A1293a

>  <smiles>  (788) 
Cn1nc(NC(=O)c2cccn3cnnc23)c2ccccc21

>  <HIPPO Compound ID>  (788) 
15998

>  <HIPPO Pose ID>  (788) 
488185

>  <ref_pdb>  (788) 
A4012a

$$$$
C89732-P12
     RDKit          3D

 22 25  0  0  0  0  0  0  0  0999 V2000
   20.6508   -4.9504   19.7750 O   0  0  0  0  0  0  0  0  0  0  0  0
   19.5404   -4.6164   19.9240 C   0  0  0  0  0  0  0  0  0  0  0  0
   18.2526   -5.0623   19.1930 N   0  0  0  0  0  0  0  0  0  0  0  0
   18.0580   -6.0319   18.2395 C   0  0  0  0  0  0  0  0  0  0  0  0
   16.8350   -6.5576   18.0854 N   0  0  0  0  0  0  0  0  0  0  0  0
   16.9616   -7.3898   17.0368 N   0  0  0  0  0  0  0  0  0  0  0  0
   18.2047   -7.4077   16.4722 C   0  0  0  0  0  0  0  0  0  0  0  0
   18.6955   -8.0500   15.3277 C   0  0  0  0  0  0  0  0  0  0  0  0
   20.0198   -7.7906   14.9808 C   0  0  0  0  0  0  0  0  0  0  0  0
   20.4975   -8.3872   13.8483 O   0  0  0  0  0  0  0  0  0  0  0  0
   20.8275   -6.9578   15.7471 C   0  0  0  0  0  0  0  0  0  0  0  0
   20.3151   -6.3437   16.8996 C   0  0  0  0  0  0  0  0  0  0  0  0
   18.9719   -6.5604   17.2714 C   0  0  0  0  0  0  0  0  0  0  0  0
   19.2031   -3.6203   21.0135 C   0  0  0  0  0  0  0  0  0  0  0  0
   19.7938   -3.8034   22.2209 C   0  0  0  0  0  0  0  0  0  0  0  0
   19.7691   -2.7831   23.2647 C   0  0  0  0  0  0  0  0  0  0  0  0
   19.2292   -1.5870   22.9809 C   0  0  0  0  0  0  0  0  0  0  0  0
   18.6224   -1.4065   21.7427 N   0  0  0  0  0  0  0  0  0  0  0  0
   18.0125   -0.3082   21.2083 C   0  0  0  0  0  0  0  0  0  0  0  0
   17.4449   -0.6235   20.0666 N   0  0  0  0  0  0  0  0  0  0  0  0
   17.7544   -1.9404   19.7938 N   0  0  0  0  0  0  0  0  0  0  0  0
   18.5084   -2.3971   20.7724 C   0  0  0  0  0  0  0  0  0  0  0  0
  1  2  2  0
  2  3  1  0
  3  4  1  0
  4  5  2  0
  5  6  1  0
  6  7  1  0
  7  8  2  0
  8  9  1  0
  9 10  1  0
  9 11  2  0
 11 12  1  0
 12 13  2  0
  2 14  1  0
 14 15  2  0
 15 16  1  0
 16 17  2  0
 17 18  1  0
 18 19  1  0
 19 20  2  0
 20 21  1  0
 21 22  2  0
 13  4  1  0
 22 14  1  0
 13  7  1  0
 22 18  1  0
M  END
>  <inchikey>  (789) 
BZGNUPUTGOBVRA-UHFFFAOYSA-N

>  <energy_score>  (789) 
-45.241538

>  <subsites>  (789) 
2 - A3977/A/202/1

>  <alias>  (789) 
C89732-P12

>  <tags>  (789) 
openbind_a71ev2a_c1_scaffolds,BulkDock Fragalysis export,openbind_a71ev2a_c1_knitwork_impure,fragmenstein_placed

>  <distance_score>  (789) 
0.96376

>  <placement_batch>  (789) 
openbind_a71ev2a_c1_knitwork_impure

>  <name>  (789) 
C89732-P12

>  <ref_mols>  (789) 
A0497a,A1293a

>  <smiles>  (789) 
O=C(Nc1n[nH]c2cc(O)ccc12)c1cccn2cnnc12

>  <HIPPO Compound ID>  (789) 
2060

>  <HIPPO Pose ID>  (789) 
488186

>  <ref_pdb>  (789) 
A4012a

$$$$
C2408-P324
     RDKit          3D

 15 15  0  0  0  0  0  0  0  0999 V2000
    9.0510    9.8584   23.8475 C   0  0  0  0  0  0  0  0  0  0  0  0
    9.1344   11.3750   23.7458 C   0  0  0  0  0  0  0  0  0  0  0  0
    8.6036   12.1221   24.9573 C   0  0  2  0  0  0  0  0  0  0  0  0
    7.1740   11.8055   25.3616 C   0  0  0  0  0  0  0  0  0  0  0  0
    8.8657   13.6286   24.9845 C   0  0  0  0  0  0  0  0  0  0  0  0
    9.3469   14.0796   26.0386 O   0  0  0  0  0  0  0  0  0  0  0  0
    8.5314   14.5936   23.7901 C   0  0  0  0  0  0  0  0  0  0  0  0
    7.2795   14.1411   23.0202 C   0  0  0  0  0  0  0  0  0  0  0  0
    8.1486   15.9606   24.4283 C   0  0  0  0  0  0  0  0  0  0  0  0
    9.7213   14.6826   22.8851 N   0  0  0  0  0  0  0  0  0  0  0  0
   10.9296   15.1804   23.5713 C   0  0  0  0  0  0  0  0  0  0  0  0
   12.1507   15.1093   22.6643 C   0  0  0  0  0  0  0  0  0  0  0  0
   11.9516   15.9378   21.4080 C   0  0  0  0  0  0  0  0  0  0  0  0
   10.6801   15.4951   20.7064 C   0  0  0  0  0  0  0  0  0  0  0  0
    9.4826   15.4852   21.6605 C   0  0  0  0  0  0  0  0  0  0  0  0
  1  2  1  0
  2  3  1  0
  3  4  1  6
  3  5  1  0
  5  6  2  0
  5  7  1  0
  7  8  1  0
  7  9  1  0
  7 10  1  0
 10 11  1  0
 11 12  1  0
 12 13  1  0
 13 14  1  0
 14 15  1  0
 15 10  1  0
M  END
>  <inchikey>  (790) 
AHFGKFFBSVWUBY-UHFFFAOYSA-N

>  <energy_score>  (790) 
-46.07398

>  <subsites>  (790) 
1 - Active Site

>  <alias>  (790) 
C2408-P324

>  <tags>  (790) 
openbind_a71ev2a_c1_scaffolds,BulkDock Fragalysis export,openbind_a71ev2a_c1_knitwork_impure,fragmenstein_placed

>  <distance_score>  (790) 
0.977978

>  <placement_batch>  (790) 
openbind_a71ev2a_c1_knitwork_impure

>  <name>  (790) 
C2408-P324

>  <ref_mols>  (790) 
A4365b,A1779a

>  <smiles>  (790) 
CC[C@H](C)C(=O)C(C)(C)N1CCCCC1

>  <HIPPO Compound ID>  (790) 
3768

>  <HIPPO Pose ID>  (790) 
488231

>  <ref_pdb>  (790) 
A4012a

$$$$
C18995-P38
     RDKit          3D

 18 19  0  0  0  0  0  0  0  0999 V2000
   14.9719   12.6600    0.8812 C   0  0  0  0  0  0  0  0  0  0  0  0
   16.3658   13.2794    0.8968 C   0  0  0  0  0  0  0  0  0  0  0  0
   16.6124   14.0944    2.1738 C   0  0  0  0  0  0  0  0  0  0  0  0
   17.9657   14.8655    2.2387 C   0  0  2  0  0  0  0  0  0  0  0  0
   18.1146   15.8413    1.0800 C   0  0  0  0  0  0  0  0  0  0  0  0
   19.1781   13.9178    2.4711 C   0  0  0  0  0  0  0  0  0  0  0  0
   19.0185   12.7875    2.7192 O   0  0  0  0  0  0  0  0  0  0  0  0
   20.4809   14.7606    2.4137 N   0  0  0  0  0  0  0  0  0  0  0  0
   21.8630   14.3627    2.5569 C   0  0  0  0  0  0  0  0  0  0  0  0
   22.4438   13.8103    1.3138 C   0  0  0  0  0  0  0  0  0  0  0  0
   21.9469   13.8555    0.0925 N   0  0  0  0  0  0  0  0  0  0  0  0
   22.8316   13.2300   -0.7575 N   0  0  0  0  0  0  0  0  0  0  0  0
   23.8605   12.8296   -0.0453 C   0  0  0  0  0  0  0  0  0  0  0  0
   23.6634   13.1833    1.2613 N   0  0  0  0  0  0  0  0  0  0  0  0
   24.6502   13.0196    2.3092 C   0  0  0  0  0  0  0  0  0  0  0  0
   25.7885   12.0716    1.9164 C   0  0  0  0  0  0  0  0  0  0  0  0
   26.2368   12.3039    0.4721 C   0  0  0  0  0  0  0  0  0  0  0  0
   25.0722   12.1042   -0.5004 C   0  0  0  0  0  0  0  0  0  0  0  0
  1  2  1  0
  2  3  1  0
  3  4  1  0
  4  5  1  6
  4  6  1  0
  6  7  2  0
  6  8  1  0
  8  9  1  0
  9 10  1  0
 10 11  2  0
 11 12  1  0
 12 13  2  0
 13 14  1  0
 14 15  1  0
 15 16  1  0
 16 17  1  0
 17 18  1  0
 14 10  1  0
 18 13  1  0
M  END
>  <inchikey>  (791) 
VSJBYJHPGLAONM-UHFFFAOYSA-N

>  <energy_score>  (791) 
-22.210604

>  <subsites>  (791) 
6 - A0486/A/147/1

>  <alias>  (791) 
C18995-P38

>  <tags>  (791) 
openbind_a71ev2a_c1_scaffolds,BulkDock Fragalysis export,openbind_a71ev2a_c1_knitwork_impure,fragmenstein_placed

>  <distance_score>  (791) 
0.941402

>  <placement_batch>  (791) 
openbind_a71ev2a_c1_knitwork_impure

>  <name>  (791) 
C18995-P38

>  <ref_mols>  (791) 
A0239a,A0608a

>  <smiles>  (791) 
CCC[C@H](C)C(=O)NCc1nnc2n1CCCC2

>  <HIPPO Compound ID>  (791) 
4665

>  <HIPPO Pose ID>  (791) 
488347

>  <ref_pdb>  (791) 
A4012a

$$$$
C18997-P51
     RDKit          3D

 19 20  0  0  0  0  0  0  0  0999 V2000
   17.2681   17.1236    1.9160 C   0  0  0  0  0  0  0  0  0  0  0  0
   18.6278   16.5804    2.2358 C   0  0  0  0  0  0  0  0  0  0  0  0
   19.7376   17.7752    2.8124 Cl  0  0  0  0  0  0  0  0  0  0  0  0
   18.9356   15.2834    2.0970 C   0  0  0  0  0  0  0  0  0  0  0  0
   20.2085   14.5747    2.4105 C   0  0  0  0  0  0  0  0  0  0  0  0
   20.1707   13.5346    2.9337 O   0  0  0  0  0  0  0  0  0  0  0  0
   21.4028   15.3697    1.8576 N   0  0  0  0  0  0  0  0  0  0  0  0
   22.8370   15.0930    1.9165 C   0  0  0  0  0  0  0  0  0  0  0  0
   23.6163   16.3130    1.3861 C   0  0  0  0  0  0  0  0  0  0  0  0
   23.2309   14.8722    3.3656 C   0  0  0  0  0  0  0  0  0  0  0  0
   23.0970   13.9289    0.9960 C   0  0  0  0  0  0  0  0  0  0  0  0
   22.4252   13.7169   -0.1265 N   0  0  0  0  0  0  0  0  0  0  0  0
   23.0897   12.7812   -0.8700 N   0  0  0  0  0  0  0  0  0  0  0  0
   24.1537   12.4220   -0.1928 C   0  0  0  0  0  0  0  0  0  0  0  0
   24.1395   13.0327    1.0361 N   0  0  0  0  0  0  0  0  0  0  0  0
   25.1848   12.8615    2.0225 C   0  0  0  0  0  0  0  0  0  0  0  0
   26.1975   11.7686    1.6731 C   0  0  0  0  0  0  0  0  0  0  0  0
   26.5226   11.7698    0.1820 C   0  0  0  0  0  0  0  0  0  0  0  0
   25.2582   11.5427   -0.6454 C   0  0  0  0  0  0  0  0  0  0  0  0
  1  2  1  0
  2  3  1  0
  2  4  2  3
  4  5  1  0
  5  6  2  0
  5  7  1  0
  7  8  1  0
  8  9  1  0
  8 10  1  0
  8 11  1  0
 11 12  2  0
 12 13  1  0
 13 14  2  0
 14 15  1  0
 15 16  1  0
 16 17  1  0
 17 18  1  0
 18 19  1  0
 15 11  1  0
 19 14  1  0
M  END
>  <inchikey>  (792) 
OTLOOYMQZJZQNU-UHFFFAOYSA-N

>  <energy_score>  (792) 
-44.224562

>  <subsites>  (792) 
6 - A0486/A/147/1

>  <alias>  (792) 
C18997-P51

>  <tags>  (792) 
openbind_a71ev2a_c1_scaffolds,BulkDock Fragalysis export,openbind_a71ev2a_c1_knitwork_impure,fragmenstein_placed

>  <distance_score>  (792) 
0.967266

>  <placement_batch>  (792) 
openbind_a71ev2a_c1_knitwork_impure

>  <name>  (792) 
C18997-P51

>  <ref_mols>  (792) 
A0239a,A0608a

>  <smiles>  (792) 
CC(Cl)=CC(=O)NC(C)(C)c1nnc2n1CCCC2

>  <HIPPO Compound ID>  (792) 
10335

>  <HIPPO Pose ID>  (792) 
488348

>  <ref_pdb>  (792) 
A4012a

$$$$
C7181-P440
     RDKit          3D

 21 22  0  0  0  0  0  0  0  0999 V2000
    3.4576   12.6048   30.0723 C   0  0  0  0  0  0  0  0  0  0  0  0
    3.4436   11.1141   29.7397 C   0  0  2  0  0  0  0  0  0  0  0  0
    4.0797   10.7417   28.3904 C   0  0  0  0  0  0  0  0  0  0  0  0
    5.3630   11.4571   27.9500 C   0  0  0  0  0  0  0  0  0  0  0  0
    5.7081   12.4937   28.3610 O   0  0  0  0  0  0  0  0  0  0  0  0
    5.9696   10.5645   26.8282 N   0  0  0  0  0  0  0  0  0  0  0  0
    7.0047   10.7993   25.9741 C   0  0  0  0  0  0  0  0  0  0  0  0
    7.5797    9.8092   25.1533 C   0  0  0  0  0  0  0  0  0  0  0  0
    8.4468   10.4732   24.3255 C   0  0  0  0  0  0  0  0  0  0  0  0
    8.3283   11.7901   24.6615 N   0  0  0  0  0  0  0  0  0  0  0  0
    8.9299   12.8966   23.9326 C   0  0  0  0  0  0  0  0  0  0  0  0
   10.2219   13.3791   24.6015 C   0  0  0  0  0  0  0  0  0  0  0  0
   10.6795   14.7478   24.0935 C   0  0  0  0  0  0  0  0  0  0  0  0
   10.1052   15.0972   22.7260 C   0  0  0  0  0  0  0  0  0  0  0  0
    8.5747   15.0822   22.7193 C   0  0  0  0  0  0  0  0  0  0  0  0
    7.9653   14.0570   23.6784 C   0  0  0  0  0  0  0  0  0  0  0  0
    7.5483   11.9931   25.7435 N   0  0  0  0  0  0  0  0  0  0  0  0
    1.9937   10.6340   29.7432 C   0  0  0  0  0  0  0  0  0  0  0  0
    1.4412   10.7345   30.9678 F   0  0  0  0  0  0  0  0  0  0  0  0
    1.9105    9.3393   29.3547 F   0  0  0  0  0  0  0  0  0  0  0  0
    1.2485   11.3522   28.8764 F   0  0  0  0  0  0  0  0  0  0  0  0
  2  1  1  6
  2  3  1  0
  3  4  1  0
  4  5  2  0
  4  6  1  0
  6  7  1  0
  7  8  1  0
  8  9  2  0
  9 10  1  0
 10 11  1  0
 11 12  1  0
 12 13  1  0
 13 14  1  0
 14 15  1  0
 15 16  1  0
 10 17  1  0
  2 18  1  0
 18 19  1  0
 18 20  1  0
 18 21  1  0
 17  7  2  0
 16 11  1  0
M  END
>  <inchikey>  (793) 
YQLHABXLGQDQAK-UHFFFAOYSA-N

>  <energy_score>  (793) 
-22.641955

>  <subsites>  (793) 
1 - Active Site

>  <alias>  (793) 
C7181-P440

>  <tags>  (793) 
openbind_a71ev2a_c1_scaffolds,BulkDock Fragalysis export,openbind_a71ev2a_c1_knitwork_impure,fragmenstein_placed

>  <distance_score>  (793) 
0.849137

>  <placement_batch>  (793) 
openbind_a71ev2a_c1_knitwork_impure

>  <name>  (793) 
C7181-P440

>  <ref_mols>  (793) 
A1445a,A4707a

>  <smiles>  (793) 
C[C@H](CC(=O)Nc1ccn(C2CCCCC2)n1)C(F)(F)F

>  <HIPPO Compound ID>  (793) 
7181

>  <HIPPO Pose ID>  (793) 
488663

>  <ref_pdb>  (793) 
A4012a

$$$$
C4728-P276
     RDKit          3D

  9  9  0  0  0  0  0  0  0  0999 V2000
    7.6526   11.0089   25.6951 O   0  0  0  0  0  0  0  0  0  0  0  0
    7.4736   12.0376   25.0501 C   0  0  0  0  0  0  0  0  0  0  0  0
    8.5033   13.1262   24.9257 C   0  0  0  0  0  0  0  0  0  0  0  0
    8.7104   13.4766   23.4572 C   0  0  0  0  0  0  0  0  0  0  0  0
    9.5526   14.6572   23.3062 N   0  0  0  0  0  0  0  0  0  0  0  0
   10.9623   14.4460   23.6928 C   0  0  0  0  0  0  0  0  0  0  0  0
   11.7322   15.2927   22.7454 C   0  0  0  0  0  0  0  0  0  0  0  0
   10.9476   15.7076   21.7497 C   0  0  0  0  0  0  0  0  0  0  0  0
    9.5716   15.1751   21.9212 C   0  0  0  0  0  0  0  0  0  0  0  0
  1  2  2  0
  2  3  1  0
  3  4  1  0
  4  5  1  0
  5  6  1  0
  6  7  1  0
  7  8  2  0
  8  9  1  0
  9  5  1  0
M  END
>  <inchikey>  (794) 
NPUASWGUMOGUOD-UHFFFAOYSA-N

>  <energy_score>  (794) 
-12.79745

>  <subsites>  (794) 
1 - Active Site

>  <alias>  (794) 
C4728-P276

>  <tags>  (794) 
openbind_a71ev2a_c1_scaffolds,BulkDock Fragalysis export,openbind_a71ev2a_c1_knitwork_impure,fragmenstein_placed

>  <distance_score>  (794) 
0.763364

>  <placement_batch>  (794) 
openbind_a71ev2a_c1_knitwork_impure

>  <name>  (794) 
C4728-P276

>  <ref_mols>  (794) 
A1775a,A4032a

>  <smiles>  (794) 
O=CCCN1CC=CC1

>  <HIPPO Compound ID>  (794) 
8160

>  <HIPPO Pose ID>  (794) 
488695

>  <ref_pdb>  (794) 
A4012a

$$$$
C25758-P259
     RDKit          3D

 13 13  0  0  0  0  0  0  0  0999 V2000
    8.4573    9.1460   24.0753 C   0  0  0  0  0  0  0  0  0  0  0  0
    8.5107   10.6232   24.3388 C   0  0  0  0  0  0  0  0  0  0  0  0
    9.7059   11.2420   23.7087 C   0  0  0  0  0  0  0  0  0  0  0  0
    7.5630   11.2101   25.0877 C   0  0  0  0  0  0  0  0  0  0  0  0
    7.3511   12.6268   25.4968 C   0  0  0  0  0  0  0  0  0  0  0  0
    6.5104   12.8145   26.3819 O   0  0  0  0  0  0  0  0  0  0  0  0
    8.1630   13.7721   24.9195 C   0  0  0  0  0  0  0  0  0  0  0  0
    7.9605   13.9934   23.4188 C   0  0  0  0  0  0  0  0  0  0  0  0
    8.9280   14.9481   22.8669 N   0  0  0  0  0  0  0  0  0  0  0  0
    8.5544   15.4018   21.5209 C   0  0  0  0  0  0  0  0  0  0  0  0
    9.8266   16.0208   20.9538 C   0  0  0  0  0  0  0  0  0  0  0  0
   10.9511   15.5138   21.8444 C   0  0  0  0  0  0  0  0  0  0  0  0
   10.2966   14.4527   22.7112 C   0  0  0  0  0  0  0  0  0  0  0  0
  1  2  1  0
  2  3  1  0
  2  4  2  3
  4  5  1  0
  5  6  2  0
  5  7  1  0
  7  8  1  0
  8  9  1  0
  9 10  1  0
 10 11  1  0
 11 12  1  0
 12 13  1  0
 13  9  1  0
M  END
>  <inchikey>  (795) 
ZIEANTSEZNDOIT-UHFFFAOYSA-N

>  <energy_score>  (795) 
-28.720853

>  <subsites>  (795) 
1 - Active Site

>  <alias>  (795) 
C25758-P259

>  <tags>  (795) 
openbind_a71ev2a_c1_scaffolds,BulkDock Fragalysis export,openbind_a71ev2a_c1_knitwork_impure,fragmenstein_placed

>  <distance_score>  (795) 
0.904892

>  <placement_batch>  (795) 
openbind_a71ev2a_c1_knitwork_impure

>  <name>  (795) 
C25758-P259

>  <ref_mols>  (795) 
A1775a,A3990a

>  <smiles>  (795) 
CC(C)=CC(=O)CCN1CCCC1

>  <HIPPO Compound ID>  (795) 
9219

>  <HIPPO Pose ID>  (795) 
489250

>  <ref_pdb>  (795) 
A0525a

$$$$
C20430-P22
     RDKit          3D

 21 23  0  0  0  0  0  0  0  0999 V2000
   21.0605   15.1365    1.4422 C   0  0  0  0  0  0  0  0  0  0  0  0
   22.2218   14.2718    1.9798 C   0  0  0  0  0  0  0  0  0  0  0  0
   23.2273   15.2343    2.6197 C   0  0  0  0  0  0  0  0  0  0  0  0
   21.5950   13.2570    2.9324 C   0  0  0  0  0  0  0  0  0  0  0  0
   22.8620   13.4959    0.8608 C   0  0  0  0  0  0  0  0  0  0  0  0
   22.3398   13.3699   -0.3444 N   0  0  0  0  0  0  0  0  0  0  0  0
   23.1494   12.5640   -1.0923 N   0  0  0  0  0  0  0  0  0  0  0  0
   24.1574   12.2022   -0.3367 C   0  0  0  0  0  0  0  0  0  0  0  0
   24.0132   12.7444    0.9120 N   0  0  0  0  0  0  0  0  0  0  0  0
   25.0101   12.6206    1.9594 C   0  0  0  0  0  0  0  0  0  0  0  0
   26.1321   11.5964    1.6547 C   0  0  2  0  0  0  0  0  0  0  0  0
   27.3469   11.8868    2.5548 C   0  0  0  0  0  0  0  0  0  0  0  0
   27.4196   12.8574    3.2005 O   0  0  0  0  0  0  0  0  0  0  0  0
   28.3658   10.7262    2.3614 N   0  0  0  0  0  0  0  0  0  0  0  0
   29.6561   10.4773    3.0064 C   0  0  2  0  0  0  0  0  0  0  0  0
   30.3033   11.6864    3.7511 C   0  0  0  0  0  0  0  0  0  0  0  0
   31.6844   11.3551    3.1390 C   0  0  0  0  0  0  0  0  0  0  0  0
   30.9183   10.5412    2.0767 C   0  0  0  0  0  0  0  0  0  0  0  0
   31.2112   10.1466    0.9679 O   0  0  0  0  0  0  0  0  0  0  0  0
   26.5178   11.6677    0.1673 C   0  0  0  0  0  0  0  0  0  0  0  0
   25.3094   11.3552   -0.7107 C   0  0  0  0  0  0  0  0  0  0  0  0
  1  2  1  0
  2  3  1  0
  2  4  1  0
  2  5  1  0
  5  6  2  0
  6  7  1  0
  7  8  2  0
  8  9  1  0
  9 10  1  0
 10 11  1  0
 11 12  1  1
 12 13  2  0
 12 14  1  0
 15 14  1  6
 15 16  1  0
 16 17  1  0
 17 18  1  0
 18 19  2  0
 11 20  1  0
 20 21  1  0
  9  5  1  0
 18 15  1  0
 21  8  1  0
M  END
>  <inchikey>  (796) 
SFWHGSYKQXAWJE-UHFFFAOYSA-N

>  <energy_score>  (796) 
-21.657628

>  <subsites>  (796) 
6 - A0486/A/147/1,1 - Active Site

>  <alias>  (796) 
C20430-P22

>  <tags>  (796) 
openbind_a71ev2a_c1_scaffolds,BulkDock Fragalysis export,openbind_a71ev2a_c1_knitwork_impure,fragmenstein_placed

>  <distance_score>  (796) 
0.997249

>  <placement_batch>  (796) 
openbind_a71ev2a_c1_knitwork_impure

>  <name>  (796) 
C20430-P22

>  <ref_mols>  (796) 
A0239a,A0528a

>  <smiles>  (796) 
CC(C)(C)c1nnc2n1C[C@H](C(=O)N[C@@H]1CCC1=O)CC2

>  <HIPPO Compound ID>  (796) 
7420

>  <HIPPO Pose ID>  (796) 
489368

>  <ref_pdb>  (796) 
A0525a

$$$$
C6315-P170
     RDKit          3D

 14 14  0  0  0  0  0  0  0  0999 V2000
   11.5442   15.5045   24.9644 O   0  0  0  0  0  0  0  0  0  0  0  0
   11.3653   15.2255   23.8456 C   0  0  0  0  0  0  0  0  0  0  0  0
   12.4983   15.1048   22.8421 C   0  0  0  0  0  0  0  0  0  0  0  0
   12.3421   15.9535   21.6009 C   0  0  0  0  0  0  0  0  0  0  0  0
   11.3390   15.1472   20.3653 Cl  0  0  0  0  0  0  0  0  0  0  0  0
   10.0697   14.8183   23.1106 N   0  0  0  0  0  0  0  0  0  0  0  0
    8.7485   14.5782   23.6149 C   0  0  0  0  0  0  0  0  0  0  0  0
    8.7173   13.2296   24.3491 C   0  0  1  0  0  0  0  0  0  0  0  0
    7.2824   12.7779   24.5897 C   0  0  0  0  0  0  0  0  0  0  0  0
    7.2667   11.4190   25.2617 C   0  0  0  0  0  0  0  0  0  0  0  0
    8.0398   10.4461   24.5381 N   0  0  0  0  0  0  0  0  0  0  0  0
    9.2083   10.7255   23.8991 C   0  0  0  0  0  0  0  0  0  0  0  0
    9.9593    9.8255   23.5406 O   0  0  0  0  0  0  0  0  0  0  0  0
    9.5275   12.1647   23.6019 C   0  0  0  0  0  0  0  0  0  0  0  0
  1  2  2  0
  2  3  1  0
  3  4  1  0
  4  5  1  0
  2  6  1  0
  6  7  1  0
  8  7  1  6
  8  9  1  0
  9 10  1  0
 10 11  1  0
 11 12  1  0
 12 13  2  0
 12 14  1  0
 14  8  1  0
M  END
>  <inchikey>  (797) 
LCTNYMQLEGMDNQ-UHFFFAOYSA-N

>  <energy_score>  (797) 
-2.270037

>  <subsites>  (797) 
1 - Active Site

>  <alias>  (797) 
C6315-P170

>  <tags>  (797) 
openbind_a71ev2a_c1_scaffolds,BulkDock Fragalysis export,openbind_a71ev2a_c1_knitwork_impure,fragmenstein_placed

>  <distance_score>  (797) 
0.913421

>  <placement_batch>  (797) 
openbind_a71ev2a_c1_knitwork_impure

>  <name>  (797) 
C6315-P170

>  <ref_mols>  (797) 
A3579a,A1776a

>  <smiles>  (797) 
O=C(CCCl)NC[C@H]1CCNC(=O)C1

>  <HIPPO Compound ID>  (797) 
3796

>  <HIPPO Pose ID>  (797) 
489793

>  <ref_pdb>  (797) 
A0525a

$$$$
C6329-P170
     RDKit          3D

 17 17  0  0  0  0  0  0  0  0999 V2000
   12.5836   15.4224   20.4863 C   0  0  0  0  0  0  0  0  0  0  0  0
   11.7315   15.1322   21.6658 C   0  0  0  0  0  0  0  0  0  0  0  0
   12.2054   15.3874   22.9014 C   0  0  0  0  0  0  0  0  0  0  0  0
   11.6220   14.9601   24.1984 C   0  0  0  0  0  0  0  0  0  0  0  0
   12.3031   14.5001   25.0190 O   0  0  0  0  0  0  0  0  0  0  0  0
   10.1062   15.1402   24.1558 N   0  0  0  0  0  0  0  0  0  0  0  0
    9.0877   14.7073   25.0731 C   0  0  0  0  0  0  0  0  0  0  0  0
    8.4897   13.3911   24.5427 C   0  0  2  0  0  0  0  0  0  0  0  0
    7.4000   12.8489   25.4584 C   0  0  0  0  0  0  0  0  0  0  0  0
    6.9671   11.4994   24.9307 C   0  0  0  0  0  0  0  0  0  0  0  0
    8.0926   10.5037   24.7764 C   0  0  0  0  0  0  0  0  0  0  0  0
    9.2605   11.0769   24.0271 C   0  0  0  0  0  0  0  0  0  0  0  0
   10.0170   10.4067   23.3384 O   0  0  0  0  0  0  0  0  0  0  0  0
    9.5277   12.3946   24.2748 N   0  0  0  0  0  0  0  0  0  0  0  0
   10.4323   14.5152   21.2513 C   0  0  0  0  0  0  0  0  0  0  0  0
    9.3807   15.1598   21.8253 F   0  0  0  0  0  0  0  0  0  0  0  0
   10.2280   14.6467   19.9136 F   0  0  0  0  0  0  0  0  0  0  0  0
  1  2  1  0
  2  3  2  3
  3  4  1  0
  4  5  2  0
  4  6  1  0
  6  7  1  0
  8  7  1  1
  8  9  1  0
  9 10  1  0
 10 11  1  0
 11 12  1  0
 12 13  2  0
 12 14  1  0
  2 15  1  0
 15 16  1  0
 15 17  1  0
 14  8  1  0
M  END
>  <inchikey>  (798) 
FYGXQHWPDXQZJW-UHFFFAOYSA-N

>  <energy_score>  (798) 
-12.167813

>  <subsites>  (798) 
1 - Active Site

>  <alias>  (798) 
C6329-P170

>  <tags>  (798) 
openbind_a71ev2a_c1_scaffolds,BulkDock Fragalysis export,openbind_a71ev2a_c1_knitwork_impure,fragmenstein_placed

>  <distance_score>  (798) 
0.981702

>  <placement_batch>  (798) 
openbind_a71ev2a_c1_knitwork_impure

>  <name>  (798) 
C6329-P170

>  <ref_mols>  (798) 
A3579a,A1776a

>  <smiles>  (798) 
CC(=CC(=O)NC[C@@H]1CCCC(=O)N1)C(F)F

>  <HIPPO Compound ID>  (798) 
32214

>  <HIPPO Pose ID>  (798) 
489796

>  <ref_pdb>  (798) 
A0525a

$$$$
C8881-P274
     RDKit          3D

 23 25  0  0  0  0  0  0  0  0999 V2000
   10.0577   12.3690   24.6150 O   0  0  0  0  0  0  0  0  0  0  0  0
    9.0237   12.8923   24.5645 C   0  0  0  0  0  0  0  0  0  0  0  0
    8.6583   14.3371   24.2088 N   0  0  0  0  0  0  0  0  0  0  0  0
    9.4786   15.4188   23.7482 C   0  0  0  0  0  0  0  0  0  0  0  0
    9.2316   15.6738   22.2467 C   0  0  1  0  0  0  0  0  0  0  0  0
   10.2512   15.0068   21.4877 O   0  0  0  0  0  0  0  0  0  0  0  0
    7.8360   15.1890   21.7544 C   0  0  0  0  0  0  0  0  0  0  0  0
    6.6677   15.3696   22.6439 N   0  0  0  0  0  0  0  0  0  0  0  0
    6.4064   16.7724   22.9875 C   0  0  0  0  0  0  0  0  0  0  0  0
    5.4351   16.8206   24.1736 C   0  0  0  0  0  0  0  0  0  0  0  0
    4.1805   16.0339   23.8852 C   0  0  0  0  0  0  0  0  0  0  0  0
    3.0140   16.2614   24.6273 C   0  0  0  0  0  0  0  0  0  0  0  0
    1.8549   15.5362   24.3538 C   0  0  0  0  0  0  0  0  0  0  0  0
    1.8566   14.5748   23.3459 C   0  0  0  0  0  0  0  0  0  0  0  0
    3.0197   14.3319   22.6139 C   0  0  0  0  0  0  0  0  0  0  0  0
    4.1960   15.0455   22.8838 C   0  0  0  0  0  0  0  0  0  0  0  0
    5.4433   14.7873   22.0572 C   0  0  0  0  0  0  0  0  0  0  0  0
    7.6721   12.1594   24.7619 C   0  0  2  0  0  0  0  0  0  0  0  0
    6.7665   12.7982   25.8337 C   0  0  0  0  0  0  0  0  0  0  0  0
    6.1104   11.8653   26.8446 C   0  0  0  0  0  0  0  0  0  0  0  0
    6.0163   10.4291   26.3822 C   0  0  0  0  0  0  0  0  0  0  0  0
    7.3255    9.9593   26.0001 N   0  0  0  0  0  0  0  0  0  0  0  0
    7.8510   10.6357   24.8220 C   0  0  0  0  0  0  0  0  0  0  0  0
  1  2  2  0
  2  3  1  0
  3  4  1  0
  4  5  1  0
  5  6  1  6
  5  7  1  0
  7  8  1  0
  8  9  1  0
  9 10  1  0
 10 11  1  0
 11 12  2  0
 12 13  1  0
 13 14  2  0
 14 15  1  0
 15 16  2  0
 16 17  1  0
 18  2  1  1
 18 19  1  0
 19 20  1  0
 20 21  1  0
 21 22  1  0
 22 23  1  0
 17  8  1  0
 23 18  1  0
 16 11  1  0
M  END
>  <inchikey>  (799) 
GMKJOMOIOGJQHB-UHFFFAOYSA-N

>  <energy_score>  (799) 
-15.425411

>  <subsites>  (799) 
1 - Active Site,3 - A0541/A/147/1

>  <alias>  (799) 
C8881-P274

>  <tags>  (799) 
openbind_a71ev2a_c1_scaffolds,BulkDock Fragalysis export,openbind_a71ev2a_c1_knitwork_impure,fragmenstein_placed

>  <distance_score>  (799) 
0.950285

>  <placement_batch>  (799) 
openbind_a71ev2a_c1_knitwork_impure

>  <name>  (799) 
C8881-P274

>  <ref_mols>  (799) 
A4031a,A0586a

>  <smiles>  (799) 
O=C(NC[C@@H](O)CN1CCc2ccccc2C1)[C@@H]1CCCNC1

>  <HIPPO Compound ID>  (799) 
4724

>  <HIPPO Pose ID>  (799) 
489828

>  <ref_pdb>  (799) 
A0525a

$$$$
C660-P103
     RDKit          3D

 14 16  0  0  0  0  0  0  0  0999 V2000
   14.1813   -4.4685   17.4012 C   0  0  0  0  0  0  0  0  0  0  0  0
   15.3899   -3.9800   17.8974 C   0  0  0  0  0  0  0  0  0  0  0  0
   16.4914   -4.8357   18.0817 C   0  0  0  0  0  0  0  0  0  0  0  0
   17.7143   -4.4244   18.7594 C   0  0  0  0  0  0  0  0  0  0  0  0
   18.1953   -5.0175   19.8388 N   0  0  0  0  0  0  0  0  0  0  0  0
   19.3219   -4.3530   20.2749 C   0  0  0  0  0  0  0  0  0  0  0  0
   19.7030   -3.2712   19.5129 C   0  0  0  0  0  0  0  0  0  0  0  0
   18.6144   -3.0745   18.2096 S   0  0  0  0  0  0  0  0  0  0  0  0
   16.3593   -6.1951   17.7352 C   0  0  0  0  0  0  0  0  0  0  0  0
   17.1862   -7.3429   17.7368 C   0  0  0  0  0  0  0  0  0  0  0  0
   16.5564   -8.4373   17.2978 N   0  0  0  0  0  0  0  0  0  0  0  0
   15.3062   -7.9980   17.0681 N   0  0  0  0  0  0  0  0  0  0  0  0
   15.1335   -6.6554   17.2690 C   0  0  0  0  0  0  0  0  0  0  0  0
   14.0252   -5.8227   17.0933 C   0  0  0  0  0  0  0  0  0  0  0  0
  1  2  2  0
  2  3  1  0
  3  4  1  0
  4  5  2  0
  5  6  1  0
  6  7  2  0
  7  8  1  0
  3  9  2  0
  9 10  1  0
 10 11  2  0
 11 12  1  0
 12 13  1  0
 13 14  2  0
 14  1  1  0
  8  4  1  0
 13  9  1  0
M  END
>  <inchikey>  (800) 
SCARXBJLFBDDOC-UHFFFAOYSA-N

>  <energy_score>  (800) 
-64.576693

>  <subsites>  (800) 
2 - A3977/A/202/1

>  <alias>  (800) 
C660-P103

>  <tags>  (800) 
openbind_a71ev2a_c1_scaffolds,BulkDock Fragalysis export,openbind_a71ev2a_c1_knitwork_impure,fragmenstein_placed

>  <distance_score>  (800) 
0.896386

>  <placement_batch>  (800) 
openbind_a71ev2a_c1_knitwork_impure

>  <name>  (800) 
C660-P103

>  <ref_mols>  (800) 
A0497a,A1105b

>  <smiles>  (800) 
c1cc(-c2nccs2)c2cn[nH]c2c1

>  <HIPPO Compound ID>  (800) 
2537

>  <HIPPO Pose ID>  (800) 
490802

>  <ref_pdb>  (800) 
A0514b

$$$$
C684-P103
     RDKit          3D

 23 25  0  0  0  0  0  0  0  0999 V2000
   21.5342   -5.8702   14.8740 C   0  0  0  0  0  0  0  0  0  0  0  0
   20.9004   -6.8904   15.8164 C   0  0  2  0  0  0  0  0  0  0  0  0
   20.5202   -8.0514   15.0793 O   0  0  0  0  0  0  0  0  0  0  0  0
   21.5072   -9.0658   15.1361 C   0  0  0  0  0  0  0  0  0  0  0  0
   21.0898  -10.0779   14.3423 F   0  0  0  0  0  0  0  0  0  0  0  0
   22.6625   -8.5965   14.6180 F   0  0  0  0  0  0  0  0  0  0  0  0
   19.6962   -6.2341   16.5448 C   0  0  0  0  0  0  0  0  0  0  0  0
   19.7214   -5.1422   16.9573 O   0  0  0  0  0  0  0  0  0  0  0  0
   18.5728   -7.3047   16.5998 N   0  0  0  0  0  0  0  0  0  0  0  0
   17.2899   -7.2219   17.0633 C   0  0  0  0  0  0  0  0  0  0  0  0
   16.5643   -8.3376   16.9048 N   0  0  0  0  0  0  0  0  0  0  0  0
   15.3025   -7.9224   17.0558 N   0  0  0  0  0  0  0  0  0  0  0  0
   15.1866   -6.5813   17.2726 C   0  0  0  0  0  0  0  0  0  0  0  0
   14.0652   -5.7496   17.2428 C   0  0  0  0  0  0  0  0  0  0  0  0
   14.2575   -4.3992   17.5160 C   0  0  0  0  0  0  0  0  0  0  0  0
   15.5047   -3.9358   17.9220 C   0  0  0  0  0  0  0  0  0  0  0  0
   16.6161   -4.8070   18.0098 C   0  0  0  0  0  0  0  0  0  0  0  0
   17.7284   -4.3758   18.7763 N   0  0  0  0  0  0  0  0  0  0  0  0
   18.5420   -5.1824   19.5578 C   0  0  0  0  0  0  0  0  0  0  0  0
   19.3655   -4.3521   20.2778 C   0  0  0  0  0  0  0  0  0  0  0  0
   18.9609   -3.0605   19.9138 C   0  0  0  0  0  0  0  0  0  0  0  0
   17.9226   -3.0628   19.0801 N   0  0  0  0  0  0  0  0  0  0  0  0
   16.4845   -6.1353   17.5371 C   0  0  0  0  0  0  0  0  0  0  0  0
  2  1  1  6
  2  3  1  0
  3  4  1  0
  4  5  1  0
  4  6  1  0
  2  7  1  0
  7  8  2  0
  7  9  1  0
  9 10  1  0
 10 11  2  0
 11 12  1  0
 12 13  1  0
 13 14  2  0
 14 15  1  0
 15 16  2  0
 16 17  1  0
 17 18  1  0
 18 19  1  0
 19 20  2  0
 20 21  1  0
 21 22  2  0
 17 23  2  0
 23 10  1  0
 23 13  1  0
 22 18  1  0
M  END
>  <inchikey>  (801) 
SZDLHMXCGWCAQL-UHFFFAOYSA-N

>  <energy_score>  (801) 
-50.342054

>  <subsites>  (801) 
2 - A3977/A/202/1

>  <alias>  (801) 
C684-P103

>  <tags>  (801) 
openbind_a71ev2a_c1_scaffolds,BulkDock Fragalysis export,openbind_a71ev2a_c1_knitwork_impure,fragmenstein_placed

>  <distance_score>  (801) 
0.875732

>  <placement_batch>  (801) 
openbind_a71ev2a_c1_knitwork_impure

>  <name>  (801) 
C684-P103

>  <ref_mols>  (801) 
A0497a,A1105b

>  <smiles>  (801) 
C[C@H](OC(F)F)C(=O)Nc1n[nH]c2cccc(-n3cccn3)c12

>  <HIPPO Compound ID>  (801) 
684

>  <HIPPO Pose ID>  (801) 
490812

>  <ref_pdb>  (801) 
A0514b

$$$$
C542-P199
     RDKit          3D

 19 22  0  0  0  0  0  0  0  0999 V2000
   27.1953   20.0191   21.6850 C   0  0  0  0  0  0  0  0  0  0  0  0
   28.2951   20.3774   20.9121 C   0  0  0  0  0  0  0  0  0  0  0  0
   28.1344   21.1313   19.7444 C   0  0  0  0  0  0  0  0  0  0  0  0
   26.8351   21.5137   19.3703 C   0  0  0  0  0  0  0  0  0  0  0  0
   26.3137   22.4249   18.0120 S   0  0  0  0  0  0  0  0  0  0  0  0
   24.6675   22.3223   18.5407 C   0  0  0  0  0  0  0  0  0  0  0  0
   23.6273   22.9781   17.9315 N   0  0  0  0  0  0  0  0  0  0  0  0
   23.6551   23.2231   16.4818 C   0  0  0  0  0  0  0  0  0  0  0  0
   22.5637   24.2422   16.0703 C   0  0  0  0  0  0  0  0  0  0  0  0
   21.1978   23.8674   16.5347 N   0  0  0  0  0  0  0  0  0  0  0  0
   20.2606   24.9539   16.1975 C   0  0  0  0  0  0  0  0  0  0  0  0
   19.9728   24.9647   14.6720 C   0  0  0  0  0  0  0  0  0  0  0  0
   18.4878   25.1732   15.0368 C   0  0  0  0  0  0  0  0  0  0  0  0
   18.7991   24.4574   16.3679 C   0  0  0  0  0  0  0  0  0  0  0  0
   21.2588   23.7203   18.0098 C   0  0  0  0  0  0  0  0  0  0  0  0
   22.2883   22.6615   18.4517 C   0  0  0  0  0  0  0  0  0  0  0  0
   24.5093   21.6213   19.6453 N   0  0  0  0  0  0  0  0  0  0  0  0
   25.7213   21.1652   20.1284 C   0  0  0  0  0  0  0  0  0  0  0  0
   25.9069   20.4076   21.3036 C   0  0  0  0  0  0  0  0  0  0  0  0
  1  2  2  0
  2  3  1  0
  3  4  2  0
  4  5  1  0
  5  6  1  0
  6  7  1  0
  7  8  1  0
  8  9  1  0
  9 10  1  0
 10 11  1  0
 11 12  1  0
 12 13  1  0
 13 14  1  0
 10 15  1  0
 15 16  1  0
  6 17  2  0
 17 18  1  0
 18 19  2  0
 19  1  1  0
 18  4  1  0
 16  7  1  0
 14 11  1  0
M  END
>  <inchikey>  (802) 
RMNLILARQBZGID-UHFFFAOYSA-N

>  <energy_score>  (802) 
-49.985449

>  <subsites>  (802) 
1 - Active Site,5 - A3181/A/202/1

>  <alias>  (802) 
C542-P199

>  <tags>  (802) 
openbind_a71ev2a_c1_scaffolds,BulkDock Fragalysis export,openbind_a71ev2a_c1_knitwork_impure,fragmenstein_placed

>  <distance_score>  (802) 
0.539544

>  <placement_batch>  (802) 
openbind_a71ev2a_c1_knitwork_impure

>  <name>  (802) 
C542-P199

>  <ref_mols>  (802) 
A0514b,A3621a

>  <smiles>  (802) 
c1ccc2sc(N3CCN(C4CCC4)CC3)nc2c1

>  <HIPPO Compound ID>  (802) 
4586

>  <HIPPO Pose ID>  (802) 
490944

>  <ref_pdb>  (802) 
A0514b

$$$$
C3646-P239
     RDKit          3D

 11 12  0  0  0  0  0  0  0  0999 V2000
    8.2389   11.4429   24.8582 C   0  0  0  0  0  0  0  0  0  0  0  0
    7.4643   12.2897   25.6414 C   0  0  0  0  0  0  0  0  0  0  0  0
    6.4651   11.7523   26.4486 C   0  0  0  0  0  0  0  0  0  0  0  0
    6.2595   10.3782   26.4319 C   0  0  0  0  0  0  0  0  0  0  0  0
    5.2574    9.7500   27.2712 C   0  0  0  0  0  0  0  0  0  0  0  0
    4.3622    8.7169   27.1268 C   0  0  0  0  0  0  0  0  0  0  0  0
    3.7633    8.5916   28.3903 C   0  0  0  0  0  0  0  0  0  0  0  0
    4.2205    9.5051   29.2498 N   0  0  0  0  0  0  0  0  0  0  0  0
    5.1634   10.2354   28.5395 O   0  0  0  0  0  0  0  0  0  0  0  0
    6.9972    9.5350   25.6686 N   0  0  0  0  0  0  0  0  0  0  0  0
    7.9740   10.0852   24.9069 C   0  0  0  0  0  0  0  0  0  0  0  0
  1  2  2  0
  2  3  1  0
  3  4  2  0
  4  5  1  0
  5  6  2  0
  6  7  1  0
  7  8  2  0
  8  9  1  0
  4 10  1  0
 10 11  2  0
 11  1  1  0
  9  5  1  0
M  END
>  <inchikey>  (803) 
YUUBMJABYAMHEQ-UHFFFAOYSA-N

>  <energy_score>  (803) 
-16.812514

>  <subsites>  (803) 
1 - Active Site

>  <alias>  (803) 
C3646-P239

>  <tags>  (803) 
openbind_a71ev2a_c1_scaffolds,BulkDock Fragalysis export,openbind_a71ev2a_c1_knitwork_impure,fragmenstein_placed

>  <distance_score>  (803) 
0.994182

>  <placement_batch>  (803) 
openbind_a71ev2a_c1_knitwork_impure

>  <name>  (803) 
C3646-P239

>  <ref_mols>  (803) 
A0556a,A3920a

>  <smiles>  (803) 
c1ccc(-c2ccno2)nc1

>  <HIPPO Compound ID>  (803) 
4036

>  <HIPPO Pose ID>  (803) 
491571

>  <ref_pdb>  (803) 
A0514b

$$$$
C7625-P159
     RDKit          3D

 19 21  0  0  0  0  0  0  0  0999 V2000
    8.6449   15.8995   22.2891 O   0  0  0  0  0  0  0  0  0  0  0  0
    8.6228   15.0688   23.4709 S   0  0  0  0  0  0  0  0  0  0  0  0
    8.0844   15.5690   24.7232 O   0  0  0  0  0  0  0  0  0  0  0  0
   10.2916   14.6069   23.8478 C   0  0  0  0  0  0  0  0  0  0  0  0
   11.1322   14.0362   22.7266 C   0  0  0  0  0  0  0  0  0  0  0  0
   11.3584   15.0029   21.5575 C   0  0  0  0  0  0  0  0  0  0  0  0
   10.4892   14.6587   20.3846 C   0  0  0  0  0  0  0  0  0  0  0  0
   11.0678   14.7667   18.9948 C   0  0  0  0  0  0  0  0  0  0  0  0
    9.9960   15.7033   19.4310 C   0  0  0  0  0  0  0  0  0  0  0  0
    7.7478   13.6865   23.0850 N   0  0  0  0  0  0  0  0  0  0  0  0
    7.4569   12.6397   24.0927 C   0  0  0  0  0  0  0  0  0  0  0  0
    8.5743   11.5952   24.1681 C   0  0  0  0  0  0  0  0  0  0  0  0
    8.3674   10.6604   25.3567 C   0  0  0  0  0  0  0  0  0  0  0  0
    6.9735   10.6340   25.7542 N   0  0  0  0  0  0  0  0  0  0  0  0
    6.4589   11.9082   26.2389 C   0  0  0  0  0  0  0  0  0  0  0  0
    7.0541   13.0996   25.4858 C   0  0  0  0  0  0  0  0  0  0  0  0
    6.6129   14.0322   22.1682 C   0  0  0  0  0  0  0  0  0  0  0  0
    5.6478   15.1574   22.4864 C   0  0  0  0  0  0  0  0  0  0  0  0
    5.1505   13.7573   22.3990 C   0  0  0  0  0  0  0  0  0  0  0  0
  1  2  2  0
  2  3  2  0
  2  4  1  0
  4  5  1  0
  5  6  1  0
  6  7  1  0
  7  8  1  0
  8  9  1  0
  2 10  1  0
 10 11  1  0
 11 12  1  0
 12 13  1  0
 13 14  1  0
 14 15  1  0
 15 16  1  0
 10 17  1  0
 17 18  1  0
 18 19  1  0
  9  7  1  0
 16 11  1  0
 19 17  1  0
M  END
>  <inchikey>  (804) 
KCJHWNBJYBCBFO-UHFFFAOYSA-N

>  <energy_score>  (804) 
-45.470948

>  <subsites>  (804) 
1 - Active Site

>  <alias>  (804) 
C7625-P159

>  <tags>  (804) 
openbind_a71ev2a_c1_scaffolds,BulkDock Fragalysis export,openbind_a71ev2a_c1_knitwork_impure,fragmenstein_placed

>  <distance_score>  (804) 
0.937718

>  <placement_batch>  (804) 
openbind_a71ev2a_c1_knitwork_impure

>  <name>  (804) 
C7625-P159

>  <ref_mols>  (804) 
A0719a,A3223a

>  <smiles>  (804) 
O=S(=O)(CCCC1CC1)N(C1CCNCC1)C1CC1

>  <HIPPO Compound ID>  (804) 
7625

>  <HIPPO Pose ID>  (804) 
493064

>  <ref_pdb>  (804) 
A3392a

$$$$
C9375-P356
     RDKit          3D

 14 14  0  0  0  0  0  0  0  0999 V2000
   10.7700   15.6344   19.6480 C   0  0  0  0  0  0  0  0  0  0  0  0
   11.0108   14.8554   20.9280 C   0  0  1  0  0  0  0  0  0  0  0  0
   11.9660   15.5044   21.8142 C   0  0  0  0  0  0  0  0  0  0  0  0
   12.5727   15.8359   22.7407 N   0  0  0  0  0  0  0  0  0  0  0  0
    9.7257   14.6859   21.7450 C   0  0  0  0  0  0  0  0  0  0  0  0
    9.9891   13.8926   22.9889 N   0  0  0  0  0  0  0  0  0  0  0  0
    8.7398   13.8856   24.0943 S   0  0  0  0  0  0  0  0  0  0  0  0
    7.5220   14.1726   23.3814 O   0  0  0  0  0  0  0  0  0  0  0  0
    9.1895   14.6267   25.2453 O   0  0  0  0  0  0  0  0  0  0  0  0
    8.7072   12.2655   24.5318 N   0  0  0  0  0  0  0  0  0  0  0  0
    7.4466   11.8511   25.2062 C   0  0  0  0  0  0  0  0  0  0  0  0
    7.3587   10.3450   25.0028 C   0  0  0  0  0  0  0  0  0  0  0  0
    8.4562    9.9788   24.0242 C   0  0  0  0  0  0  0  0  0  0  0  0
    8.8938   11.2991   23.4402 C   0  0  0  0  0  0  0  0  0  0  0  0
  2  1  1  6
  2  3  1  0
  3  4  3  0
  2  5  1  0
  5  6  1  0
  6  7  1  0
  7  8  2  0
  7  9  2  0
  7 10  1  0
 10 11  1  0
 11 12  1  0
 12 13  1  0
 13 14  1  0
 14 10  1  0
M  END
>  <inchikey>  (805) 
RJQPPZGWNZQLTO-UHFFFAOYSA-N

>  <energy_score>  (805) 
-25.085276

>  <subsites>  (805) 
1 - Active Site

>  <alias>  (805) 
C9375-P356

>  <tags>  (805) 
openbind_a71ev2a_c1_scaffolds,BulkDock Fragalysis export,openbind_a71ev2a_c1_knitwork_impure,fragmenstein_placed

>  <distance_score>  (805) 
0.956257

>  <placement_batch>  (805) 
openbind_a71ev2a_c1_knitwork_impure

>  <name>  (805) 
C9375-P356

>  <ref_mols>  (805) 
A4418a,A0719a

>  <smiles>  (805) 
C[C@@H](C#N)CNS(=O)(=O)N1CCCC1

>  <HIPPO Compound ID>  (805) 
8502

>  <HIPPO Pose ID>  (805) 
493630

>  <ref_pdb>  (805) 
A3392a

$$$$
C9394-P356
     RDKit          3D

 13 13  0  0  0  0  0  0  0  0999 V2000
   11.0131   15.4018   19.3794 C   0  0  0  0  0  0  0  0  0  0  0  0
   11.6378   14.9567   20.4778 C   0  0  0  0  0  0  0  0  0  0  0  0
   11.7332   15.7059   21.7703 C   0  0  0  0  0  0  0  0  0  0  0  0
   11.1316   14.9776   22.8489 O   0  0  0  0  0  0  0  0  0  0  0  0
    9.7538   14.7015   22.5821 C   0  0  0  0  0  0  0  0  0  0  0  0
    8.9220   14.6791   23.8593 C   0  0  1  0  0  0  0  0  0  0  0  0
    7.5387   14.5819   23.5325 O   0  0  0  0  0  0  0  0  0  0  0  0
    9.3109   13.6314   24.9023 C   0  0  0  0  0  0  0  0  0  0  0  0
    8.7798   12.2816   24.8104 N   0  0  0  0  0  0  0  0  0  0  0  0
    9.0580   11.5046   23.6224 C   0  0  0  0  0  0  0  0  0  0  0  0
    8.4589   10.1623   23.9966 C   0  0  0  0  0  0  0  0  0  0  0  0
    7.3496   10.4933   24.9915 C   0  0  0  0  0  0  0  0  0  0  0  0
    7.4122   12.0011   25.2014 C   0  0  0  0  0  0  0  0  0  0  0  0
  1  2  2  0
  2  3  1  0
  3  4  1  0
  4  5  1  0
  5  6  1  0
  6  7  1  6
  6  8  1  0
  8  9  1  0
  9 10  1  0
 10 11  1  0
 11 12  1  0
 12 13  1  0
 13  9  1  0
M  END
>  <inchikey>  (806) 
ALJLPWDQYMWXDZ-UHFFFAOYSA-N

>  <energy_score>  (806) 
-17.942454

>  <subsites>  (806) 
1 - Active Site

>  <alias>  (806) 
C9394-P356

>  <tags>  (806) 
openbind_a71ev2a_c1_scaffolds,BulkDock Fragalysis export,openbind_a71ev2a_c1_knitwork_impure,fragmenstein_placed

>  <distance_score>  (806) 
0.91672

>  <placement_batch>  (806) 
openbind_a71ev2a_c1_knitwork_impure

>  <name>  (806) 
C9394-P356

>  <ref_mols>  (806) 
A4418a,A0719a

>  <smiles>  (806) 
C=CCOC[C@@H](O)CN1CCCC1

>  <HIPPO Compound ID>  (806) 
16768

>  <HIPPO Pose ID>  (806) 
493641

>  <ref_pdb>  (806) 
A3392a

$$$$
C8155-P271
     RDKit          3D

 16 16  0  0  0  0  0  0  0  0999 V2000
   10.5565   15.5001   18.5292 C   0  0  0  0  0  0  0  0  0  0  0  0
   10.8809   15.9369   19.9106 C   0  0  0  0  0  0  0  0  0  0  0  0
   11.7275   15.2323   20.6664 C   0  0  0  0  0  0  0  0  0  0  0  0
   12.2846   15.6771   21.9088 C   0  0  0  0  0  0  0  0  0  0  0  0
   11.7059   15.8084   23.1074 C   0  0  0  0  0  0  0  0  0  0  0  0
   10.3113   15.5999   23.5796 C   0  0  0  0  0  0  0  0  0  0  0  0
    9.5905   14.6837   22.7135 N   0  0  0  0  0  0  0  0  0  0  0  0
    8.2944   13.9340   23.4085 S   0  0  0  0  0  0  0  0  0  0  0  0
    7.6693   14.8739   24.3031 O   0  0  0  0  0  0  0  0  0  0  0  0
    7.5562   13.2330   22.3878 O   0  0  0  0  0  0  0  0  0  0  0  0
    9.0872   12.8242   24.3564 N   0  0  0  0  0  0  0  0  0  0  0  0
    8.3632   12.3390   25.5217 C   0  0  0  0  0  0  0  0  0  0  0  0
    7.5074   11.1549   25.1683 C   0  0  0  0  0  0  0  0  0  0  0  0
    8.3847   10.0191   24.6913 C   0  0  0  0  0  0  0  0  0  0  0  0
    9.3822   10.4392   23.6238 C   0  0  0  0  0  0  0  0  0  0  0  0
    9.9882   11.8346   23.7509 C   0  0  0  0  0  0  0  0  0  0  0  0
  1  2  1  0
  2  3  2  3
  3  4  1  0
  4  5  2  3
  5  6  1  0
  6  7  1  0
  7  8  1  0
  8  9  2  0
  8 10  2  0
  8 11  1  0
 11 12  1  0
 12 13  1  0
 13 14  1  0
 14 15  1  0
 15 16  1  0
 16 11  1  0
M  END
>  <inchikey>  (807) 
QQLANTWMZZICGE-UHFFFAOYSA-N

>  <energy_score>  (807) 
-35.459288

>  <subsites>  (807) 
1 - Active Site

>  <alias>  (807) 
C8155-P271

>  <tags>  (807) 
openbind_a71ev2a_c1_scaffolds,BulkDock Fragalysis export,openbind_a71ev2a_c1_knitwork_impure,fragmenstein_placed

>  <distance_score>  (807) 
0.999717

>  <placement_batch>  (807) 
openbind_a71ev2a_c1_knitwork_impure

>  <name>  (807) 
C8155-P271

>  <ref_mols>  (807) 
A0719a,A4020b

>  <smiles>  (807) 
CC=CC=CCNS(=O)(=O)N1CCCCC1

>  <HIPPO Compound ID>  (807) 
8155

>  <HIPPO Pose ID>  (807) 
494723

>  <ref_pdb>  (807) 
A3897a

$$$$
C4732-P405
     RDKit          3D

  9  9  0  0  0  0  0  0  0  0999 V2000
    7.1528   16.0242   24.8052 C   0  0  0  0  0  0  0  0  0  0  0  0
    7.0962   14.5134   24.9522 C   0  0  0  0  0  0  0  0  0  0  0  0
    8.3839   13.8548   24.5232 C   0  0  0  0  0  0  0  0  0  0  0  0
    9.4094   14.4456   24.2048 O   0  0  0  0  0  0  0  0  0  0  0  0
    8.4175   12.3465   24.5565 C   0  0  0  0  0  0  0  0  0  0  0  0
    7.4106   11.6188   24.9441 N   0  0  0  0  0  0  0  0  0  0  0  0
    7.9635   10.2534   25.0033 C   0  0  0  0  0  0  0  0  0  0  0  0
    9.1794   10.2278   24.1045 C   0  0  0  0  0  0  0  0  0  0  0  0
    9.6821   11.6475   24.1873 C   0  0  0  0  0  0  0  0  0  0  0  0
  1  2  1  0
  2  3  1  0
  3  4  2  0
  3  5  1  0
  5  6  2  0
  6  7  1  0
  7  8  1  0
  8  9  1  0
  9  5  1  0
M  END
>  <inchikey>  (808) 
OVNCGQSYSSYBPO-UHFFFAOYSA-N

>  <energy_score>  (808) 
-26.358895

>  <subsites>  (808) 
1 - Active Site

>  <alias>  (808) 
C4732-P405

>  <tags>  (808) 
openbind_a71ev2a_c1_scaffolds,BulkDock Fragalysis export,openbind_a71ev2a_c1_knitwork_impure,fragmenstein_placed

>  <distance_score>  (808) 
0.948248

>  <placement_batch>  (808) 
openbind_a71ev2a_c1_knitwork_impure

>  <name>  (808) 
C4732-P405

>  <ref_mols>  (808) 
A4570a,A0875a

>  <smiles>  (808) 
CCC(=O)C1=NCCC1

>  <HIPPO Compound ID>  (808) 
4732

>  <HIPPO Pose ID>  (808) 
494742

>  <ref_pdb>  (808) 
A3897a

$$$$
C3665-P182
     RDKit          3D

 11 12  0  0  0  0  0  0  0  0999 V2000
    7.4903   10.1492   25.1474 C   0  0  0  0  0  0  0  0  0  0  0  0
    7.1359   11.4607   25.3590 C   0  0  0  0  0  0  0  0  0  0  0  0
    7.8004   12.4436   24.6302 C   0  0  0  0  0  0  0  0  0  0  0  0
    7.3083   13.8051   24.7042 C   0  0  0  0  0  0  0  0  0  0  0  0
    6.8095   14.4639   25.7336 N   0  0  0  0  0  0  0  0  0  0  0  0
    6.3353   15.6241   25.1722 C   0  0  0  0  0  0  0  0  0  0  0  0
    6.5700   15.6220   23.8207 C   0  0  0  0  0  0  0  0  0  0  0  0
    7.2226   14.4689   23.5087 O   0  0  0  0  0  0  0  0  0  0  0  0
    8.8481   12.0770   23.7821 C   0  0  0  0  0  0  0  0  0  0  0  0
    9.1511   10.7326   23.6656 C   0  0  0  0  0  0  0  0  0  0  0  0
    8.4781    9.7637   24.3184 N   0  0  0  0  0  0  0  0  0  0  0  0
  1  2  2  0
  2  3  1  0
  3  4  1  0
  4  5  2  0
  5  6  1  0
  6  7  2  0
  7  8  1  0
  3  9  2  0
  9 10  1  0
 10 11  2  0
 11  1  1  0
  8  4  1  0
M  END
>  <inchikey>  (809) 
GXLZMUSLZZNHNL-UHFFFAOYSA-N

>  <energy_score>  (809) 
-7.856933

>  <subsites>  (809) 
1 - Active Site

>  <alias>  (809) 
C3665-P182

>  <tags>  (809) 
openbind_a71ev2a_c1_scaffolds,BulkDock Fragalysis export,openbind_a71ev2a_c1_knitwork_impure,fragmenstein_placed

>  <distance_score>  (809) 
0.83502

>  <placement_batch>  (809) 
openbind_a71ev2a_c1_knitwork_impure

>  <name>  (809) 
C3665-P182

>  <ref_mols>  (809) 
A0556a,A3435a

>  <smiles>  (809) 
c1cc(-c2ncco2)ccn1

>  <HIPPO Compound ID>  (809) 
3665

>  <HIPPO Pose ID>  (809) 
494896

>  <ref_pdb>  (809) 
A3897a

$$$$
C16361-P182
     RDKit          3D

 21 23  0  0  0  0  0  0  0  0999 V2000
    9.8870   14.0495   25.2942 O   0  0  0  0  0  0  0  0  0  0  0  0
    9.9303   13.3239   24.3843 C   0  0  0  0  0  0  0  0  0  0  0  0
   10.8889   13.2840   23.1912 N   0  0  0  0  0  0  0  0  0  0  0  0
   11.9419   14.1832   22.8092 C   0  0  0  0  0  0  0  0  0  0  0  0
   11.9852   14.4779   21.3190 C   0  0  0  0  0  0  0  0  0  0  0  0
   10.7556   15.1233   20.7768 C   0  0  0  0  0  0  0  0  0  0  0  0
   10.5735   15.6038   19.4651 C   0  0  0  0  0  0  0  0  0  0  0  0
    9.4826   16.4265   19.5598 C   0  0  0  0  0  0  0  0  0  0  0  0
    8.9896   16.2793   20.8187 N   0  0  0  0  0  0  0  0  0  0  0  0
    9.6926   15.3995   21.5413 N   0  0  0  0  0  0  0  0  0  0  0  0
    8.9573   12.1831   24.3907 C   0  0  0  0  0  0  0  0  0  0  0  0
    9.2563   10.9353   23.8463 C   0  0  0  0  0  0  0  0  0  0  0  0
    8.4626    9.8696   24.2144 C   0  0  0  0  0  0  0  0  0  0  0  0
    7.4132    9.9731   25.0610 N   0  0  0  0  0  0  0  0  0  0  0  0
    7.0895   11.2081   25.5223 C   0  0  0  0  0  0  0  0  0  0  0  0
    6.0197   11.3072   26.4512 N   0  0  0  0  0  0  0  0  0  0  0  0
    5.3580   12.4205   26.9127 C   0  0  0  0  0  0  0  0  0  0  0  0
    4.4220   11.9545   27.8118 C   0  0  0  0  0  0  0  0  0  0  0  0
    4.5057   10.6040   27.9521 N   0  0  0  0  0  0  0  0  0  0  0  0
    5.4518   10.2494   27.1140 C   0  0  0  0  0  0  0  0  0  0  0  0
    7.8160   12.3363   25.1866 C   0  0  0  0  0  0  0  0  0  0  0  0
  1  2  2  0
  2  3  1  0
  3  4  1  0
  4  5  1  0
  5  6  1  0
  6  7  1  0
  7  8  2  0
  8  9  1  0
  9 10  1  0
  2 11  1  0
 11 12  2  0
 12 13  1  0
 13 14  2  0
 14 15  1  0
 15 16  1  0
 16 17  1  0
 17 18  2  0
 18 19  1  0
 19 20  2  0
 15 21  2  0
 10  6  2  0
 21 11  1  0
 20 16  1  0
M  END
>  <inchikey>  (810) 
ZZPZYEPSKIPXIU-UHFFFAOYSA-N

>  <energy_score>  (810) 
-16.710466

>  <subsites>  (810) 
1 - Active Site

>  <alias>  (810) 
C16361-P182

>  <tags>  (810) 
openbind_a71ev2a_c1_scaffolds,BulkDock Fragalysis export,openbind_a71ev2a_c1_knitwork_impure,fragmenstein_placed

>  <distance_score>  (810) 
0.920213

>  <placement_batch>  (810) 
openbind_a71ev2a_c1_knitwork_impure

>  <name>  (810) 
C16361-P182

>  <ref_mols>  (810) 
A0556a,A3435a

>  <smiles>  (810) 
O=C(NCCc1cc[nH]n1)c1ccnc(-n2ccnc2)c1

>  <HIPPO Compound ID>  (810) 
16361

>  <HIPPO Pose ID>  (810) 
494946

>  <ref_pdb>  (810) 
A3897a

$$$$
C2086-P207
     RDKit          3D

 15 17  0  0  0  0  0  0  0  0999 V2000
   11.5293   15.2245   21.4742 C   0  0  0  0  0  0  0  0  0  0  0  0
   11.7409   14.7415   22.9030 C   0  0  0  0  0  0  0  0  0  0  0  0
   10.7878   15.4481   23.8613 C   0  0  0  0  0  0  0  0  0  0  0  0
    9.3282   15.4577   23.3881 C   0  0  2  0  0  0  0  0  0  0  0  0
    8.5546   14.2443   23.8381 C   0  0  0  0  0  0  0  0  0  0  0  0
    7.4941   14.2775   24.6298 N   0  0  0  0  0  0  0  0  0  0  0  0
    7.1536   12.9783   24.8533 C   0  0  0  0  0  0  0  0  0  0  0  0
    8.0284   12.1276   24.2290 C   0  0  0  0  0  0  0  0  0  0  0  0
    8.8930   12.9378   23.5427 N   0  0  0  0  0  0  0  0  0  0  0  0
    8.0334   10.6542   24.3128 C   0  0  0  0  0  0  0  0  0  0  0  0
    6.8601   10.1336   25.1614 C   0  0  0  0  0  0  0  0  0  0  0  0
    6.2204   11.1073   26.1678 C   0  0  0  0  0  0  0  0  0  0  0  0
    6.0097   12.5433   25.6792 C   0  0  0  0  0  0  0  0  0  0  0  0
    9.1804   15.7814   21.9732 N   0  0  0  0  0  0  0  0  0  0  0  0
   10.0684   15.0818   21.0607 C   0  0  0  0  0  0  0  0  0  0  0  0
  1  2  1  0
  2  3  1  0
  3  4  1  0
  4  5  1  6
  5  6  2  0
  6  7  1  0
  7  8  2  0
  8  9  1  0
  8 10  1  0
 10 11  1  0
 11 12  1  0
 12 13  1  0
  4 14  1  0
 14 15  1  0
 15  1  1  0
  9  5  1  0
 13  7  1  0
M  END
>  <inchikey>  (811) 
SKVGOPZVGGOSKI-UHFFFAOYSA-N

>  <energy_score>  (811) 
-31.681633

>  <subsites>  (811) 
1 - Active Site

>  <alias>  (811) 
C2086-P207

>  <tags>  (811) 
openbind_a71ev2a_c1_scaffolds,BulkDock Fragalysis export,openbind_a71ev2a_c1_knitwork_impure,fragmenstein_placed

>  <distance_score>  (811) 
0.839814

>  <placement_batch>  (811) 
openbind_a71ev2a_c1_knitwork_impure

>  <name>  (811) 
C2086-P207

>  <ref_mols>  (811) 
A3371a,A3706a

>  <smiles>  (811) 
C1CC[C@H](c2nc3c([nH]2)CCCC3)NC1

>  <HIPPO Compound ID>  (811) 
2086

>  <HIPPO Pose ID>  (811) 
495159

>  <ref_pdb>  (811) 
A3897a

$$$$
C2091-P207
     RDKit          3D

 15 17  0  0  0  0  0  0  0  0999 V2000
   11.7737   14.8006   23.0336 C   0  0  0  0  0  0  0  0  0  0  0  0
   10.7626   15.4762   23.9520 C   0  0  0  0  0  0  0  0  0  0  0  0
    9.3356   15.4689   23.3918 C   0  0  0  0  0  0  0  0  0  0  0  0
    8.5786   14.2354   23.8088 C   0  0  0  0  0  0  0  0  0  0  0  0
    7.5449   14.2403   24.6296 N   0  0  0  0  0  0  0  0  0  0  0  0
    7.2147   12.9297   24.8483 C   0  0  0  0  0  0  0  0  0  0  0  0
    8.0813   12.1042   24.1713 C   0  0  0  0  0  0  0  0  0  0  0  0
    8.9160   12.9417   23.4733 N   0  0  0  0  0  0  0  0  0  0  0  0
    8.1521   10.6281   24.2025 C   0  0  0  0  0  0  0  0  0  0  0  0
    7.0128    9.9768   24.9904 C   0  0  0  0  0  0  0  0  0  0  0  0
    6.2662   10.8605   26.4055 S   0  0  0  0  0  0  0  0  0  0  0  0
    6.0804   12.5379   25.7173 C   0  0  0  0  0  0  0  0  0  0  0  0
    9.2776   15.7784   21.8920 C   0  0  0  0  0  0  0  0  0  0  0  0
   10.3984   15.1302   21.0869 C   0  0  0  0  0  0  0  0  0  0  0  0
   11.7012   15.3701   21.7006 N   0  0  0  0  0  0  0  0  0  0  0  0
  1  2  1  0
  2  3  1  0
  3  4  1  0
  4  5  2  0
  5  6  1  0
  6  7  2  0
  7  8  1  0
  7  9  1  0
  9 10  1  0
 10 11  1  0
 11 12  1  0
  3 13  1  0
 13 14  1  0
 14 15  1  0
 15  1  1  0
  8  4  1  0
 12  6  1  0
M  END
>  <inchikey>  (812) 
XNTLIZRLNRAQQY-UHFFFAOYSA-N

>  <energy_score>  (812) 
-37.262883

>  <subsites>  (812) 
1 - Active Site

>  <alias>  (812) 
C2091-P207

>  <tags>  (812) 
openbind_a71ev2a_c1_scaffolds,BulkDock Fragalysis export,openbind_a71ev2a_c1_knitwork_impure,fragmenstein_placed

>  <distance_score>  (812) 
0.751653

>  <placement_batch>  (812) 
openbind_a71ev2a_c1_knitwork_impure

>  <name>  (812) 
C2091-P207

>  <ref_mols>  (812) 
A3371a,A3706a

>  <smiles>  (812) 
C1CC(c2nc3c([nH]2)CCSC3)CCN1

>  <HIPPO Compound ID>  (812) 
2091

>  <HIPPO Pose ID>  (812) 
495160

>  <ref_pdb>  (812) 
A3897a

$$$$
C8142-P190
     RDKit          3D

 12 12  0  0  0  0  0  0  0  0999 V2000
    7.5812   14.8562   26.7742 C   0  0  0  0  0  0  0  0  0  0  0  0
    7.0631   14.4627   25.4227 C   0  0  0  0  0  0  0  0  0  0  0  0
    7.4709   15.0267   24.4050 O   0  0  0  0  0  0  0  0  0  0  0  0
    5.9608   13.4348   25.3402 C   0  0  0  0  0  0  0  0  0  0  0  0
    6.3260   11.9860   25.6766 C   0  0  2  0  0  0  0  0  0  0  0  0
    6.3782   11.8438   27.1014 O   0  0  0  0  0  0  0  0  0  0  0  0
    7.5802   11.3309   25.0273 C   0  0  1  0  0  0  0  0  0  0  0  0
    7.3384    9.8255   24.8378 C   0  0  0  0  0  0  0  0  0  0  0  0
    8.2811    9.1082   23.8817 C   0  0  0  0  0  0  0  0  0  0  0  0
    9.4081    9.9497   23.3393 C   0  0  0  0  0  0  0  0  0  0  0  0
    8.9578   11.2440   22.8953 N   0  0  0  0  0  0  0  0  0  0  0  0
    8.0911   12.0145   23.7596 C   0  0  0  0  0  0  0  0  0  0  0  0
  1  2  1  0
  2  3  2  0
  2  4  1  0
  4  5  1  0
  5  6  1  1
  5  7  1  0
  7  8  1  6
  8  9  1  0
  9 10  1  0
 10 11  1  0
 11 12  1  0
 12  7  1  0
M  END
>  <inchikey>  (813) 
UZXQDRCHBFTVHG-UHFFFAOYSA-N

>  <energy_score>  (813) 
-21.596587

>  <subsites>  (813) 
1 - Active Site

>  <alias>  (813) 
C8142-P190

>  <tags>  (813) 
openbind_a71ev2a_c1_scaffolds,BulkDock Fragalysis export,openbind_a71ev2a_c1_knitwork_impure,fragmenstein_placed

>  <distance_score>  (813) 
0.926577

>  <placement_batch>  (813) 
openbind_a71ev2a_c1_knitwork_impure

>  <name>  (813) 
C8142-P190

>  <ref_mols>  (813) 
A0719a,A3509a

>  <smiles>  (813) 
CC(=O)C[C@H](O)[C@H]1CCCNC1

>  <HIPPO Compound ID>  (813) 
8142

>  <HIPPO Pose ID>  (813) 
495323

>  <ref_pdb>  (813) 
A3897a

$$$$
