ver_1.2
     RDKit          3D

 23 24  0  0  0  0  0  0  0  0999 V2000
    5.3101    2.2412    0.9585 C   0  0  0  0  0  0  0  0  0  0  0  0
    4.9809    1.1243   -0.0311 C   0  0  0  0  0  0  0  0  0  0  0  0
    6.2360    0.9498   -0.8615 C   0  0  0  0  0  0  0  0  0  0  0  0
    4.5130   -0.3560    0.8716 S   0  0  0  0  0  0  0  0  0  0  0  0
    4.1249   -1.6740   -0.3260 C   0  0  0  0  0  0  0  0  0  0  0  0
    3.7379   -2.8942    0.5192 C   0  0  0  0  0  0  0  0  0  0  0  0
    2.8626   -1.3155   -1.0608 C   0  0  0  0  0  0  0  0  0  0  0  0
    2.8175   -1.3143   -2.3266 O   0  0  0  0  0  0  0  0  0  0  0  0
    1.7281   -0.9795   -0.2596 N   0  0  0  0  0  0  0  0  0  0  0  0
    1.6205   -0.9346    1.1904 C   0  0  0  0  0  0  0  0  0  0  0  0
    0.1672   -1.3035    1.3940 C   0  0  0  0  0  0  0  0  0  0  0  0
   -0.4334   -1.5161    0.0215 C   0  0  0  0  0  0  0  0  0  0  0  0
    0.4170   -0.6054   -0.8425 C   0  0  0  0  0  0  0  0  0  0  0  0
    0.1777    0.8076   -0.3927 C   0  0  0  0  0  0  0  0  0  0  0  0
   -1.0302    1.4076   -0.8411 N   0  0  0  0  0  0  0  0  0  0  0  0
   -2.3276    0.9652   -0.5668 C   0  0  0  0  0  0  0  0  0  0  0  0
   -2.6666   -0.0215    0.1140 O   0  0  0  0  0  0  0  0  0  0  0  0
   -3.4588    1.7695   -1.1596 C   0  0  0  0  0  0  0  0  0  0  0  0
   -4.7645    1.1536   -0.7641 C   0  0  0  0  0  0  0  0  0  0  0  0
   -5.4418    1.4938    0.3601 C   0  0  0  0  0  0  0  0  0  0  0  0
   -6.5316    0.7816    0.4143 O   0  0  0  0  0  0  0  0  0  0  0  0
   -6.5608    0.0114   -0.6307 C   0  0  0  0  0  0  0  0  0  0  0  0
   -5.4781    0.2090   -1.3949 N   0  0  0  0  0  0  0  0  0  0  0  0
  1  2  1  0
  2  3  1  0
  2  4  1  0
  4  5  1  0
  5  6  1  0
  5  7  1  0
  7  8  2  0
  7  9  1  0
  9 10  1  0
 10 11  1  0
 11 12  1  0
 12 13  1  0
 13 14  1  0
 14 15  1  0
 15 16  1  0
 16 17  2  0
 16 18  1  0
 18 19  1  0
 19 20  2  0
 20 21  1  0
 21 22  1  0
 22 23  2  0
 13  9  1  0
 23 19  1  0
M  END
>  <ref_url>  (1) 
https://github.com/mwinokan/BulkDock

>  <submitter_name>  (1) 
Max Winokan

>  <submitter_email>  (1) 
max.winokan@diamond.ac.uk

>  <submitter_institution>  (1) 
DLS

>  <generation_date>  (1) 
2025-08-28

>  <method>  (1) 
openbind_a71ev2a_c1_knitwork_pure

>  <HIPPO Pose ID>  (1) 
HIPPO Pose ID

>  <HIPPO Compound ID>  (1) 
HIPPO Compound ID

>  <smiles>  (1) 
smiles

>  <ref_pdb>  (1) 
protein reference

>  <ref_mols>  (1) 
fragment inspirations

>  <alias>  (1) 
alias

>  <distance_score>  (1) 
distance_score

>  <energy_score>  (1) 
energy_score

$$$$
None
     RDKit          3D

 23 26  0  0  0  0  0  0  0  0999 V2000
    7.9411   13.5581   22.4202 O   0  0  0  0  0  0  0  0  0  0  0  0
    8.0980   14.1460   23.7346 S   0  0  0  0  0  0  0  0  0  0  0  0
    6.9338   14.6988   24.4041 O   0  0  0  0  0  0  0  0  0  0  0  0
    9.3033   15.4832   23.7753 C   0  0  1  0  0  0  0  0  0  0  0  0
   10.6010   15.2925   24.5740 C   0  0  0  0  0  0  0  0  0  0  0  0
   11.8078   14.8196   23.7626 C   0  0  0  0  0  0  0  0  0  0  0  0
   11.9240   15.5553   22.4385 C   0  0  0  0  0  0  0  0  0  0  0  0
   10.6641   15.4037   21.7559 N   0  0  0  0  0  0  0  0  0  0  0  0
   10.6532   15.4961   20.4188 C   0  0  0  0  0  0  0  0  0  0  0  0
    9.5938   15.6219   19.6722 N   0  0  0  0  0  0  0  0  0  0  0  0
   10.0871   15.6834   18.4194 C   0  0  0  0  0  0  0  0  0  0  0  0
   11.4475   15.6182   18.4520 C   0  0  0  0  0  0  0  0  0  0  0  0
   11.8312   15.5046   19.7434 O   0  0  0  0  0  0  0  0  0  0  0  0
    9.5094   16.0368   22.3857 C   0  0  0  0  0  0  0  0  0  0  0  0
    8.7778   12.9371   24.7360 N   0  0  0  0  0  0  0  0  0  0  0  0
    9.7754   12.0423   24.0378 C   0  0  0  0  0  0  0  0  0  0  0  0
    9.1869   10.6271   23.9920 C   0  0  0  0  0  0  0  0  0  0  0  0
    8.0176   10.7469   24.9023 C   0  0  0  0  0  0  0  0  0  0  0  0
    7.1590    9.7459   25.3043 C   0  0  0  0  0  0  0  0  0  0  0  0
    6.0840   10.0712   26.1343 C   0  0  0  0  0  0  0  0  0  0  0  0
    5.8879   11.3878   26.5619 C   0  0  0  0  0  0  0  0  0  0  0  0
    6.7603   12.3918   26.1500 C   0  0  0  0  0  0  0  0  0  0  0  0
    7.8021   12.0553   25.3017 C   0  0  0  0  0  0  0  0  0  0  0  0
  1  2  2  0
  2  3  2  0
  4  2  1  6
  4  5  1  0
  5  6  1  0
  6  7  1  0
  7  8  1  0
  8  9  1  0
  9 10  2  0
 10 11  1  0
 11 12  2  0
 12 13  1  0
  8 14  1  0
  2 15  1  0
 15 16  1  0
 16 17  1  0
 17 18  1  0
 18 19  2  0
 19 20  1  0
 20 21  2  0
 21 22  1  0
 22 23  2  0
 14  4  1  0
 23 15  1  0
 13  9  1  0
 23 18  1  0
M  END
>  <tags>  (1) 
{'openbind_a71ev2a_c1_knitwork_pure', 'fragmenstein_placed'}

>  <distance_score>  (1) 
0.997827

>  <ref_mols>  (1) 
A3623a,A5393a

>  <smiles>  (1) 
O=S(=O)([C@H]1CCCN(c2ncco2)C1)N1CCc2ccccc21

>  <HIPPO Pose ID>  (1) 
810

>  <inchikey>  (1) 
HFLHXSXUCRDIDV-UHFFFAOYSA-N

>  <ref_pdb>  (1) 
A1180a

>  <alias>  (1) 
None

>  <energy_score>  (1) 
-61.135087

>  <HIPPO Compound ID>  (1) 
99664

$$$$
None
     RDKit          3D

 14 15  0  0  0  0  0  0  0  0999 V2000
    7.0381   10.3908   25.8630 O   0  0  0  0  0  0  0  0  0  0  0  0
    7.8008   10.8530   25.0216 C   0  0  0  0  0  0  0  0  0  0  0  0
    8.5970    9.9524   24.1295 C   0  0  0  0  0  0  0  0  0  0  0  0
    9.7349   10.5535   23.3501 C   0  0  0  0  0  0  0  0  0  0  0  0
    9.9206   12.0573   23.4739 C   0  0  0  0  0  0  0  0  0  0  0  0
    8.6138   12.7964   23.7398 C   0  0  2  0  0  0  0  0  0  0  0  0
    8.8591   14.3007   23.9581 C   0  0  0  0  0  0  0  0  0  0  0  0
    9.1050   14.9406   22.7137 O   0  0  0  0  0  0  0  0  0  0  0  0
   10.3906   15.1247   22.3568 C   0  0  0  0  0  0  0  0  0  0  0  0
   10.8366   15.3382   21.0406 C   0  0  0  0  0  0  0  0  0  0  0  0
   12.1571   15.5066   20.9876 N   0  0  0  0  0  0  0  0  0  0  0  0
   12.5415   15.4569   22.2676 N   0  0  0  0  0  0  0  0  0  0  0  0
   11.5188   15.1971   23.1397 C   0  0  0  0  0  0  0  0  0  0  0  0
    7.9427   12.1974   24.8779 N   0  0  0  0  0  0  0  0  0  0  0  0
  1  2  2  0
  2  3  1  0
  3  4  1  0
  4  5  1  0
  5  6  1  0
  6  7  1  1
  7  8  1  0
  8  9  1  0
  9 10  1  0
 10 11  2  0
 11 12  1  0
 12 13  1  0
  6 14  1  0
 14  2  1  0
 13  9  2  0
M  END
>  <tags>  (2) 
{'openbind_a71ev2a_c1_knitwork_pure', 'fragmenstein_placed'}

>  <distance_score>  (2) 
0.81618

>  <ref_mols>  (2) 
A3579a,A0556a

>  <smiles>  (2) 
O=C1CCC[C@H](COc2cn[nH]c2)N1

>  <HIPPO Pose ID>  (2) 
944

>  <inchikey>  (2) 
XDBQWQWEVJPNBV-UHFFFAOYSA-N

>  <ref_pdb>  (2) 
A1180a

>  <alias>  (2) 
None

>  <energy_score>  (2) 
-33.561941

>  <HIPPO Compound ID>  (2) 
48074

$$$$
None
     RDKit          3D

 19 21  0  0  0  0  0  0  0  0999 V2000
   -3.3675    3.8049    2.0780 O   0  0  0  0  0  0  0  0  0  0  0  0
   -3.0195    4.3480    3.1103 C   0  0  0  0  0  0  0  0  0  0  0  0
   -1.8365    5.0547    3.2568 N   0  0  0  0  0  0  0  0  0  0  0  0
   -1.6172    5.4045    4.6378 C   0  0  1  0  0  0  0  0  0  0  0  0
   -0.9736    6.7466    4.8441 C   0  0  0  0  0  0  0  0  0  0  0  0
   -1.1000    7.7936    3.9198 C   0  0  0  0  0  0  0  0  0  0  0  0
   -0.4804    9.0225    4.1548 C   0  0  0  0  0  0  0  0  0  0  0  0
    0.2621    9.2258    5.3171 C   0  0  0  0  0  0  0  0  0  0  0  0
    0.3764    8.2037    6.2558 C   0  0  0  0  0  0  0  0  0  0  0  0
   -0.2420    6.9806    6.0138 C   0  0  0  0  0  0  0  0  0  0  0  0
   -0.1004    5.9923    6.9124 F   0  0  0  0  0  0  0  0  0  0  0  0
   -3.0221    5.2948    5.2385 C   0  0  0  0  0  0  0  0  0  0  0  0
   -3.6985    4.3932    4.3266 N   0  0  0  0  0  0  0  0  0  0  0  0
   -5.0962    4.0068    4.5176 C   0  0  1  0  0  0  0  0  0  0  0  0
   -6.0653    4.9383    3.7635 C   0  0  0  0  0  0  0  0  0  0  0  0
   -6.8190    4.2001    2.6618 C   0  0  0  0  0  0  0  0  0  0  0  0
   -7.5220    2.9460    3.1933 C   0  0  0  0  0  0  0  0  0  0  0  0
   -6.7795    2.2074    4.2207 N   0  0  0  0  0  0  0  0  0  0  0  0
   -5.3476    2.5162    4.1861 C   0  0  0  0  0  0  0  0  0  0  0  0
  1  2  2  0
  2  3  1  0
  3  4  1  0
  4  5  1  6
  5  6  2  0
  6  7  1  0
  7  8  2  0
  8  9  1  0
  9 10  2  0
 10 11  1  0
  4 12  1  0
 12 13  1  0
 14 13  1  6
 14 15  1  0
 15 16  1  0
 16 17  1  0
 17 18  1  0
 18 19  1  0
 13  2  1  0
 19 14  1  0
 10  5  1  0
M  END
>  <tags>  (3) 
{'openbind_a71ev2a_c1_knitwork_pure', 'fragmenstein_placed'}

>  <distance_score>  (3) 
0.39214

>  <ref_mols>  (3) 
A1081b,A3616b,A4873b,A4331a,A4706a

>  <smiles>  (3) 
O=C1N[C@@H](c2ccccc2F)CN1[C@H]1CCCNC1

>  <HIPPO Pose ID>  (3) 
1410

>  <inchikey>  (3) 
QZMIVAQLNCUJAN-UHFFFAOYSA-N

>  <ref_pdb>  (3) 
A1180a

>  <alias>  (3) 
None

>  <energy_score>  (3) 
-37.001182

>  <HIPPO Compound ID>  (3) 
47239

$$$$
None
     RDKit          3D

 19 21  0  0  0  0  0  0  0  0999 V2000
   -5.4965    4.8533    3.8424 O   0  0  0  0  0  0  0  0  0  0  0  0
   -4.6776    5.2598    4.6460 C   0  0  0  0  0  0  0  0  0  0  0  0
   -3.4394    5.7679    4.2879 N   0  0  0  0  0  0  0  0  0  0  0  0
   -2.6263    6.0059    5.4494 C   0  0  1  0  0  0  0  0  0  0  0  0
   -1.7399    7.2183    5.3752 C   0  0  0  0  0  0  0  0  0  0  0  0
   -1.8842    8.2178    4.4034 C   0  0  0  0  0  0  0  0  0  0  0  0
   -1.0354    9.3276    4.3998 C   0  0  0  0  0  0  0  0  0  0  0  0
   -0.0608    9.4737    5.3857 C   0  0  0  0  0  0  0  0  0  0  0  0
    0.0748    8.5033    6.3735 C   0  0  0  0  0  0  0  0  0  0  0  0
   -0.7399    7.3759    6.3421 C   0  0  0  0  0  0  0  0  0  0  0  0
   -0.5204    6.3907    7.2287 F   0  0  0  0  0  0  0  0  0  0  0  0
   -3.6750    6.0901    6.5632 C   0  0  0  0  0  0  0  0  0  0  0  0
   -4.7876    5.3108    6.0425 N   0  0  0  0  0  0  0  0  0  0  0  0
   -6.0875    5.2154    6.7306 C   0  0  2  0  0  0  0  0  0  0  0  0
   -5.9423    5.3444    8.2597 C   0  0  0  0  0  0  0  0  0  0  0  0
   -7.2699    5.1234    8.9781 C   0  0  0  0  0  0  0  0  0  0  0  0
   -7.9036    3.7977    8.5743 C   0  0  0  0  0  0  0  0  0  0  0  0
   -8.1036    3.7441    7.1316 N   0  0  0  0  0  0  0  0  0  0  0  0
   -6.8367    3.8961    6.4001 C   0  0  0  0  0  0  0  0  0  0  0  0
  1  2  2  0
  2  3  1  0
  3  4  1  0
  4  5  1  6
  5  6  2  0
  6  7  1  0
  7  8  2  0
  8  9  1  0
  9 10  2  0
 10 11  1  0
  4 12  1  0
 12 13  1  0
 14 13  1  6
 14 15  1  0
 15 16  1  0
 16 17  1  0
 17 18  1  0
 18 19  1  0
 13  2  1  0
 19 14  1  0
 10  5  1  0
M  END
>  <tags>  (4) 
{'openbind_a71ev2a_c1_knitwork_pure', 'fragmenstein_placed'}

>  <distance_score>  (4) 
0.866832

>  <ref_mols>  (4) 
A1081b,A3616b

>  <smiles>  (4) 
O=C1N[C@@H](c2ccccc2F)CN1[C@@H]1CCCNC1

>  <HIPPO Pose ID>  (4) 
1411

>  <inchikey>  (4) 
CXUYUFRBAKGUHD-UHFFFAOYSA-N

>  <ref_pdb>  (4) 
A1180a

>  <alias>  (4) 
None

>  <energy_score>  (4) 
-41.067148

>  <HIPPO Compound ID>  (4) 
50543

$$$$
None
     RDKit          3D

 21 23  0  0  0  0  0  0  0  0999 V2000
   26.4206   10.6734    1.1780 C   0  0  0  0  0  0  0  0  0  0  0  0
   27.1007   11.7382    1.9319 C   0  0  0  0  0  0  0  0  0  0  0  0
   28.4571   11.6809    2.1512 N   0  0  0  0  0  0  0  0  0  0  0  0
   28.8185   12.7763    2.8654 C   0  0  0  0  0  0  0  0  0  0  0  0
   27.7856   13.5316    3.1450 N   0  0  0  0  0  0  0  0  0  0  0  0
   26.6833   12.8872    2.5943 C   0  0  0  0  0  0  0  0  0  0  0  0
   25.0579   13.4860    2.8457 S   0  0  0  0  0  0  0  0  0  0  0  0
   25.0981   14.9092    2.5972 O   0  0  0  0  0  0  0  0  0  0  0  0
   24.6544   12.9357    4.1156 O   0  0  0  0  0  0  0  0  0  0  0  0
   23.9943   12.8151    1.7055 N   0  0  0  0  0  0  0  0  0  0  0  0
   22.7468   13.5820    1.4193 C   0  0  0  0  0  0  0  0  0  0  0  0
   22.0277   14.0944    2.6595 C   0  0  0  0  0  0  0  0  0  0  0  0
   20.6235   14.3802    2.4149 N   0  0  0  0  0  0  0  0  0  0  0  0
   19.6960   13.4055    2.5941 N   0  0  0  0  0  0  0  0  0  0  0  0
   18.5352   14.0448    2.4393 C   0  0  0  0  0  0  0  0  0  0  0  0
   18.7002   15.4115    2.1330 C   0  0  0  0  0  0  0  0  0  0  0  0
   17.8453   16.4997    1.8906 C   0  0  0  0  0  0  0  0  0  0  0  0
   18.4088   17.7516    1.6182 C   0  0  0  0  0  0  0  0  0  0  0  0
   19.7924   17.9214    1.5892 C   0  0  0  0  0  0  0  0  0  0  0  0
   20.6580   16.8513    1.8322 C   0  0  0  0  0  0  0  0  0  0  0  0
   20.0792   15.6041    2.1017 C   0  0  0  0  0  0  0  0  0  0  0  0
  1  2  1  0
  2  3  1  0
  3  4  1  0
  4  5  2  0
  5  6  1  0
  6  7  1  0
  7  8  2  0
  7  9  2  0
  7 10  1  0
 10 11  1  0
 11 12  1  0
 12 13  1  0
 13 14  1  0
 14 15  2  0
 15 16  1  0
 16 17  2  0
 17 18  1  0
 18 19  2  0
 19 20  1  0
 20 21  2  0
  6  2  2  0
 21 13  1  0
 21 16  1  0
M  END
>  <tags>  (5) 
{'openbind_a71ev2a_c1_knitwork_pure', 'fragmenstein_placed'}

>  <distance_score>  (5) 
0.884244

>  <ref_mols>  (5) 
A0486a,A0309a

>  <smiles>  (5) 
Cc1[nH]cnc1S(=O)(=O)NCCn1ncc2ccccc21

>  <HIPPO Pose ID>  (5) 
2537

>  <inchikey>  (5) 
GKRPCXYDRCZNEJ-UHFFFAOYSA-N

>  <ref_pdb>  (5) 
A1180a

>  <alias>  (5) 
None

>  <energy_score>  (5) 
-389.344039

>  <HIPPO Compound ID>  (5) 
125028

$$$$
None
     RDKit          3D

 19 21  0  0  0  0  0  0  0  0999 V2000
   25.1033   14.2281    3.4511 C   0  0  0  0  0  0  0  0  0  0  0  0
   25.0937   13.5704    2.0793 C   0  0  2  0  0  0  0  0  0  0  0  0
   23.8874   12.7998    1.7926 N   0  0  0  0  0  0  0  0  0  0  0  0
   22.6867   13.5492    1.4373 C   0  0  0  0  0  0  0  0  0  0  0  0
   21.9508   14.1106    2.6478 C   0  0  0  0  0  0  0  0  0  0  0  0
   20.5436   14.3787    2.3994 N   0  0  0  0  0  0  0  0  0  0  0  0
   19.6183   13.4120    2.6225 N   0  0  0  0  0  0  0  0  0  0  0  0
   18.4556   14.0472    2.4716 C   0  0  0  0  0  0  0  0  0  0  0  0
   18.6157   15.4097    2.1446 C   0  0  0  0  0  0  0  0  0  0  0  0
   17.7574   16.4958    1.9049 C   0  0  0  0  0  0  0  0  0  0  0  0
   18.3160   17.7443    1.6075 C   0  0  0  0  0  0  0  0  0  0  0  0
   19.6987   17.9134    1.5498 C   0  0  0  0  0  0  0  0  0  0  0  0
   20.5675   16.8453    1.7883 C   0  0  0  0  0  0  0  0  0  0  0  0
   19.9936   15.6012    2.0841 C   0  0  0  0  0  0  0  0  0  0  0  0
   26.2804   12.6481    1.9384 C   0  0  0  0  0  0  0  0  0  0  0  0
   27.0938   12.4613    0.8384 C   0  0  0  0  0  0  0  0  0  0  0  0
   28.0937   11.6326    1.2628 N   0  0  0  0  0  0  0  0  0  0  0  0
   27.8574   11.3359    2.5697 C   0  0  0  0  0  0  0  0  0  0  0  0
   26.7523   11.8977    2.9952 N   0  0  0  0  0  0  0  0  0  0  0  0
  2  1  1  1
  2  3  1  0
  3  4  1  0
  4  5  1  0
  5  6  1  0
  6  7  1  0
  7  8  2  0
  8  9  1  0
  9 10  2  0
 10 11  1  0
 11 12  2  0
 12 13  1  0
 13 14  2  0
  2 15  1  0
 15 16  2  0
 16 17  1  0
 17 18  1  0
 18 19  2  0
 14  6  1  0
 19 15  1  0
 14  9  1  0
M  END
>  <tags>  (6) 
{'openbind_a71ev2a_c1_knitwork_pure', 'fragmenstein_placed'}

>  <distance_score>  (6) 
0.839041

>  <ref_mols>  (6) 
A0486a,A0309a

>  <smiles>  (6) 
C[C@H](NCCn1ncc2ccccc21)c1c[nH]cn1

>  <HIPPO Pose ID>  (6) 
2540

>  <inchikey>  (6) 
NHKSKEKGNRBSQB-UHFFFAOYSA-N

>  <ref_pdb>  (6) 
A1180a

>  <alias>  (6) 
None

>  <energy_score>  (6) 
-21.33307

>  <HIPPO Compound ID>  (6) 
51269

$$$$
None
     RDKit          3D

 21 23  0  0  0  0  0  0  0  0999 V2000
    9.7150   10.0184   23.1173 C   0  0  0  0  0  0  0  0  0  0  0  0
    8.9044   10.8294   24.0556 C   0  0  0  0  0  0  0  0  0  0  0  0
    7.7504   10.3001   24.5719 N   0  0  0  0  0  0  0  0  0  0  0  0
    7.1632   11.1802   25.4394 C   0  0  0  0  0  0  0  0  0  0  0  0
    6.0146   11.0362   26.2194 C   0  0  0  0  0  0  0  0  0  0  0  0
    5.6124   12.1249   26.9923 C   0  0  0  0  0  0  0  0  0  0  0  0
    6.3341   13.3131   26.9806 C   0  0  0  0  0  0  0  0  0  0  0  0
    7.4950   13.4313   26.2125 C   0  0  0  0  0  0  0  0  0  0  0  0
    7.9331   12.3368   25.4381 C   0  0  0  0  0  0  0  0  0  0  0  0
    9.0899   12.0847   24.6322 C   0  0  0  0  0  0  0  0  0  0  0  0
   10.2409   12.9827   24.5234 C   0  0  0  0  0  0  0  0  0  0  0  0
   10.4662   13.9096   25.2979 O   0  0  0  0  0  0  0  0  0  0  0  0
   11.0932   12.7085   23.4972 O   0  0  0  0  0  0  0  0  0  0  0  0
   10.6863   13.5075   22.3991 C   0  0  0  0  0  0  0  0  0  0  0  0
   11.8581   13.8924   21.4850 C   0  0  0  0  0  0  0  0  0  0  0  0
   11.3057   14.9560   20.6061 C   0  0  0  0  0  0  0  0  0  0  0  0
   10.7379   14.7785   19.3760 C   0  0  0  0  0  0  0  0  0  0  0  0
    9.8349   15.7250   18.9194 C   0  0  0  0  0  0  0  0  0  0  0  0
    9.6164   16.8763   19.6491 C   0  0  0  0  0  0  0  0  0  0  0  0
   10.2330   17.1154   20.7980 N   0  0  0  0  0  0  0  0  0  0  0  0
   11.0775   16.1601   21.2107 C   0  0  0  0  0  0  0  0  0  0  0  0
  1  2  1  0
  2  3  1  0
  3  4  1  0
  4  5  2  0
  5  6  1  0
  6  7  2  0
  7  8  1  0
  8  9  2  0
  9 10  1  0
 10 11  1  0
 11 12  2  0
 11 13  1  0
 13 14  1  0
 14 15  1  0
 15 16  1  0
 16 17  2  0
 17 18  1  0
 18 19  2  0
 19 20  1  0
 20 21  2  0
 10  2  2  0
 21 16  1  0
  9  4  1  0
M  END
>  <tags>  (7) 
{'openbind_a71ev2a_c1_knitwork_pure', 'fragmenstein_placed'}

>  <distance_score>  (7) 
0.901956

>  <ref_mols>  (7) 
A3568a,A2629a

>  <smiles>  (7) 
Cc1[nH]c2ccccc2c1C(=O)OCCc1cccnc1

>  <HIPPO Pose ID>  (7) 
3246

>  <inchikey>  (7) 
RQGLZHKMFNDMSH-UHFFFAOYSA-N

>  <ref_pdb>  (7) 
A1180a

>  <alias>  (7) 
None

>  <energy_score>  (7) 
-4.356648

>  <HIPPO Compound ID>  (7) 
118932

$$$$
None
     RDKit          3D

 21 23  0  0  0  0  0  0  0  0999 V2000
    8.9555   16.8321   19.4887 C   0  0  0  0  0  0  0  0  0  0  0  0
    9.3961   15.6858   18.8254 C   0  0  0  0  0  0  0  0  0  0  0  0
   10.4288   14.9195   19.3063 C   0  0  0  0  0  0  0  0  0  0  0  0
   10.8987   15.2501   20.5438 C   0  0  0  0  0  0  0  0  0  0  0  0
   11.8695   14.3885   21.2525 C   0  0  0  0  0  0  0  0  0  0  0  0
   11.1176   13.3243   22.0498 C   0  0  0  0  0  0  0  0  0  0  0  0
   10.8675   13.6381   23.4296 N   0  0  0  0  0  0  0  0  0  0  0  0
   10.8735   12.5725   24.3671 C   0  0  0  0  0  0  0  0  0  0  0  0
    9.6893   11.6795   24.3453 C   0  0  0  0  0  0  0  0  0  0  0  0
    9.5176   10.4689   23.7191 C   0  0  0  0  0  0  0  0  0  0  0  0
    8.4644    9.8493   24.3124 O   0  0  0  0  0  0  0  0  0  0  0  0
    7.9840   10.7620   25.1959 C   0  0  0  0  0  0  0  0  0  0  0  0
    8.6899   11.8566   25.2822 N   0  0  0  0  0  0  0  0  0  0  0  0
    9.8283   14.5879   23.7100 C   0  0  0  0  0  0  0  0  0  0  0  0
    8.4156   14.3352   23.3311 C   0  0  0  0  0  0  0  0  0  0  0  0
    7.8108   14.2565   22.0989 C   0  0  0  0  0  0  0  0  0  0  0  0
    6.4676   14.1602   22.2793 O   0  0  0  0  0  0  0  0  0  0  0  0
    6.3187   14.2601   23.6288 C   0  0  0  0  0  0  0  0  0  0  0  0
    7.4361   14.3691   24.3063 N   0  0  0  0  0  0  0  0  0  0  0  0
   10.4255   16.3012   21.2283 N   0  0  0  0  0  0  0  0  0  0  0  0
    9.4730   17.0837   20.7036 C   0  0  0  0  0  0  0  0  0  0  0  0
  1  2  2  0
  2  3  1  0
  3  4  2  0
  4  5  1  0
  5  6  1  0
  6  7  1  0
  7  8  1  0
  8  9  1  0
  9 10  2  0
 10 11  1  0
 11 12  1  0
 12 13  2  0
  7 14  1  0
 14 15  1  0
 15 16  2  0
 16 17  1  0
 17 18  1  0
 18 19  2  0
  4 20  1  0
 20 21  2  0
 21  1  1  0
 13  9  1  0
 19 15  1  0
M  END
>  <tags>  (8) 
{'openbind_a71ev2a_c1_knitwork_pure', 'fragmenstein_placed'}

>  <distance_score>  (8) 
0.73825

>  <ref_mols>  (8) 
A3623a,A3568a

>  <smiles>  (8) 
c1ccc(CCN(Cc2cocn2)Cc2cocn2)nc1

>  <HIPPO Pose ID>  (8) 
4097

>  <inchikey>  (8) 
AUFDHAWKPJKIFW-UHFFFAOYSA-N

>  <ref_pdb>  (8) 
A1180a

>  <alias>  (8) 
None

>  <energy_score>  (8) 
-26.17015

>  <HIPPO Compound ID>  (8) 
55900

$$$$
None
     RDKit          3D

 25 27  0  0  0  0  0  0  0  0999 V2000
    0.3303   12.7757   18.1487 C   0  0  0  0  0  0  0  0  0  0  0  0
    1.8050   12.4966   18.4776 C   0  0  0  0  0  0  0  0  0  0  0  0
    1.9568   11.0419   18.9468 C   0  0  0  0  0  0  0  0  0  0  0  0
    2.6694   12.7400   17.2411 C   0  0  0  0  0  0  0  0  0  0  0  0
    2.2811   13.4079   19.5515 C   0  0  0  0  0  0  0  0  0  0  0  0
    2.0134   14.6815   19.9860 C   0  0  0  0  0  0  0  0  0  0  0  0
    2.9548   15.0713   20.9252 N   0  0  0  0  0  0  0  0  0  0  0  0
    3.7046   13.9833   21.0642 C   0  0  0  0  0  0  0  0  0  0  0  0
    5.0435   13.8317   21.6237 C   0  0  0  0  0  0  0  0  0  0  0  0
    5.5540   12.7970   21.5233 O   0  0  0  0  0  0  0  0  0  0  0  0
    5.5773   15.1439   22.1713 N   0  0  0  0  0  0  0  0  0  0  0  0
    6.8967   15.4996   22.6324 C   0  0  2  0  0  0  0  0  0  0  0  0
    7.8525   14.9149   21.5463 C   0  0  0  0  0  0  0  0  0  0  0  0
    8.8879   15.8145   21.1683 O   0  0  0  0  0  0  0  0  0  0  0  0
    7.2096   15.0664   24.0899 C   0  0  0  0  0  0  0  0  0  0  0  0
    8.3792   14.1297   24.2279 C   0  0  0  0  0  0  0  0  0  0  0  0
    9.6764   14.2501   23.7478 C   0  0  0  0  0  0  0  0  0  0  0  0
   10.1967   12.9900   23.6180 N   0  0  0  0  0  0  0  0  0  0  0  0
    9.3185   12.0930   24.1578 C   0  0  0  0  0  0  0  0  0  0  0  0
    9.3515   10.7122   24.1568 C   0  0  0  0  0  0  0  0  0  0  0  0
    8.3836   10.0952   24.9346 C   0  0  0  0  0  0  0  0  0  0  0  0
    7.3958   10.7868   25.6268 C   0  0  0  0  0  0  0  0  0  0  0  0
    7.2923   12.1547   25.4804 C   0  0  0  0  0  0  0  0  0  0  0  0
    8.2743   12.8147   24.7312 C   0  0  0  0  0  0  0  0  0  0  0  0
    3.3141   12.9393   20.2842 O   0  0  0  0  0  0  0  0  0  0  0  0
  1  2  1  0
  2  3  1  0
  2  4  1  0
  2  5  1  0
  5  6  2  0
  6  7  1  0
  7  8  2  0
  8  9  1  0
  9 10  2  0
  9 11  1  0
 11 12  1  0
 12 13  1  6
 13 14  1  0
 12 15  1  0
 15 16  1  0
 16 17  2  0
 17 18  1  0
 18 19  1  0
 19 20  2  0
 20 21  1  0
 21 22  2  0
 22 23  1  0
 23 24  2  0
  8 25  1  0
 25  5  1  0
 24 16  1  0
 24 19  1  0
M  END
>  <tags>  (9) 
{'openbind_a71ev2a_c1_knitwork_pure', 'fragmenstein_placed'}

>  <distance_score>  (9) 
0.931227

>  <ref_mols>  (9) 
A3623a,A3568a

>  <smiles>  (9) 
CC(C)(C)c1cnc(C(=O)N[C@H](CO)Cc2c[nH]c3ccccc23)o1

>  <HIPPO Pose ID>  (9) 
4129

>  <inchikey>  (9) 
KBKFCGYHNXKBGD-UHFFFAOYSA-N

>  <ref_pdb>  (9) 
A1180a

>  <alias>  (9) 
None

>  <energy_score>  (9) 
-2.599994

>  <HIPPO Compound ID>  (9) 
132547

$$$$
None
     RDKit          3D

 24 27  0  0  0  0  0  0  0  0999 V2000
   19.2030   12.6094    2.9002 O   0  0  0  0  0  0  0  0  0  0  0  0
   19.5024   13.6850    2.5649 C   0  0  0  0  0  0  0  0  0  0  0  0
   20.8878   14.3551    2.4796 N   0  0  0  0  0  0  0  0  0  0  0  0
   22.1981   13.8157    2.6971 C   0  0  0  0  0  0  0  0  0  0  0  0
   22.7637   13.3671    1.4101 C   0  0  0  0  0  0  0  0  0  0  0  0
   22.2732   13.5649    0.2008 N   0  0  0  0  0  0  0  0  0  0  0  0
   23.1281   12.9882   -0.7077 N   0  0  0  0  0  0  0  0  0  0  0  0
   24.1315   12.4670   -0.0385 C   0  0  0  0  0  0  0  0  0  0  0  0
   23.9484   12.6976    1.2963 N   0  0  0  0  0  0  0  0  0  0  0  0
   24.9193   12.3960    2.3262 C   0  0  0  0  0  0  0  0  0  0  0  0
   26.0122   11.4407    1.8426 C   0  0  0  0  0  0  0  0  0  0  0  0
   26.4756   11.7950    0.4270 C   0  0  0  0  0  0  0  0  0  0  0  0
   25.3071   11.7300   -0.5594 C   0  0  0  0  0  0  0  0  0  0  0  0
   18.4367   14.6618    2.2258 C   0  0  0  0  0  0  0  0  0  0  0  0
   18.5512   15.8615    1.5548 C   0  0  0  0  0  0  0  0  0  0  0  0
   17.3285   16.4511    1.4923 O   0  0  0  0  0  0  0  0  0  0  0  0
   16.4889   15.5705    2.1205 C   0  0  0  0  0  0  0  0  0  0  0  0
   15.0884   15.9630    2.1932 C   0  0  0  0  0  0  0  0  0  0  0  0
   14.6373   17.2224    1.7792 C   0  0  0  0  0  0  0  0  0  0  0  0
   13.2863   17.5530    1.8775 C   0  0  0  0  0  0  0  0  0  0  0  0
   12.4158   16.6115    2.3975 C   0  0  0  0  0  0  0  0  0  0  0  0
   12.8006   15.3861    2.8169 N   0  0  0  0  0  0  0  0  0  0  0  0
   14.1259   15.0897    2.6902 C   0  0  0  0  0  0  0  0  0  0  0  0
   17.0982   14.4943    2.5791 N   0  0  0  0  0  0  0  0  0  0  0  0
  1  2  2  0
  2  3  1  0
  3  4  1  0
  4  5  1  0
  5  6  2  0
  6  7  1  0
  7  8  2  0
  8  9  1  0
  9 10  1  0
 10 11  1  0
 11 12  1  0
 12 13  1  0
  2 14  1  0
 14 15  2  0
 15 16  1  0
 16 17  1  0
 17 18  1  0
 18 19  2  0
 19 20  1  0
 20 21  2  0
 21 22  1  0
 22 23  2  0
 17 24  2  0
  9  5  1  0
 24 14  1  0
 13  8  1  0
 23 18  1  0
M  END
>  <tags>  (10) 
{'openbind_a71ev2a_c1_knitwork_pure', 'fragmenstein_placed'}

>  <distance_score>  (10) 
0.591058

>  <ref_mols>  (10) 
A0239a,A3568a

>  <smiles>  (10) 
O=C(NCc1nnc2n1CCCC2)c1coc(-c2cccnc2)n1

>  <HIPPO Pose ID>  (10) 
4539

>  <inchikey>  (10) 
MPUTVVNRSHICME-UHFFFAOYSA-N

>  <ref_pdb>  (10) 
A1180a

>  <alias>  (10) 
None

>  <energy_score>  (10) 
-12.188579

>  <HIPPO Compound ID>  (10) 
53753

$$$$
None
     RDKit          3D

 23 25  0  0  0  0  0  0  0  0999 V2000
    5.2678   14.8626   23.0353 C   0  0  0  0  0  0  0  0  0  0  0  0
    6.6439   15.1702   23.2745 O   0  0  0  0  0  0  0  0  0  0  0  0
    7.5293   14.2469   22.8212 C   0  0  0  0  0  0  0  0  0  0  0  0
    7.2587   13.2275   22.2030 O   0  0  0  0  0  0  0  0  0  0  0  0
    8.9254   14.6132   23.2616 C   0  0  0  0  0  0  0  0  0  0  0  0
    9.4178   13.7577   24.4294 C   0  0  1  0  0  0  0  0  0  0  0  0
    8.4181   13.6186   25.5936 C   0  0  0  0  0  0  0  0  0  0  0  0
    8.0934   12.1825   25.7360 N   0  0  0  0  0  0  0  0  0  0  0  0
    6.5310   11.7730   26.1942 S   0  0  0  0  0  0  0  0  0  0  0  0
    5.5840   12.7528   25.7260 O   0  0  0  0  0  0  0  0  0  0  0  0
    6.3183   10.3619   25.9880 O   0  0  0  0  0  0  0  0  0  0  0  0
    6.5965   12.0028   27.8867 N   0  0  0  0  0  0  0  0  0  0  0  0
    6.6138   13.4045   28.3813 C   0  0  0  0  0  0  0  0  0  0  0  0
    5.3781   13.7359   29.2076 C   0  0  0  0  0  0  0  0  0  0  0  0
    5.2499   12.8203   30.4210 C   0  0  0  0  0  0  0  0  0  0  0  0
    5.7560   11.4089   30.1337 C   0  0  0  0  0  0  0  0  0  0  0  0
    5.6963   11.0858   28.6458 C   0  0  0  0  0  0  0  0  0  0  0  0
    8.8447   11.4704   24.7461 C   0  0  0  0  0  0  0  0  0  0  0  0
    8.9342   10.1130   24.5181 C   0  0  0  0  0  0  0  0  0  0  0  0
    9.9005    9.6155   23.6369 C   0  0  0  0  0  0  0  0  0  0  0  0
   10.7636   10.4841   22.9733 C   0  0  0  0  0  0  0  0  0  0  0  0
   10.6474   11.8570   23.1668 C   0  0  0  0  0  0  0  0  0  0  0  0
    9.7001   12.3329   24.0679 C   0  0  0  0  0  0  0  0  0  0  0  0
  1  2  1  0
  2  3  1  0
  3  4  2  0
  3  5  1  0
  6  5  1  6
  6  7  1  0
  7  8  1  0
  8  9  1  0
  9 10  2  0
  9 11  2  0
  9 12  1  0
 12 13  1  0
 13 14  1  0
 14 15  1  0
 15 16  1  0
 16 17  1  0
  8 18  1  0
 18 19  2  0
 19 20  1  0
 20 21  2  0
 21 22  1  0
 22 23  2  0
 23  6  1  0
 17 12  1  0
 23 18  1  0
M  END
>  <tags>  (11) 
{'openbind_a71ev2a_c1_knitwork_pure', 'fragmenstein_placed'}

>  <distance_score>  (11) 
0.847364

>  <ref_mols>  (11) 
A3229a,A3616a,A4368a,A4742b,A3207a,A1778a,A3982a

>  <smiles>  (11) 
COC(=O)C[C@H]1CN(S(=O)(=O)N2CCCCC2)c2ccccc21

>  <HIPPO Pose ID>  (11) 
5890

>  <inchikey>  (11) 
IWAUSDKULMXZBG-UHFFFAOYSA-N

>  <ref_pdb>  (11) 
A3890a

>  <alias>  (11) 
None

>  <energy_score>  (11) 
-52.809916

>  <HIPPO Compound ID>  (11) 
53845

$$$$
None
     RDKit          3D

 17 19  0  0  0  0  0  0  0  0999 V2000
    9.5629   13.7560   25.3345 O   0  0  0  0  0  0  0  0  0  0  0  0
    8.6291   13.4109   24.6156 C   0  0  0  0  0  0  0  0  0  0  0  0
    8.3012   13.9288   23.2207 C   0  0  0  0  0  0  0  0  0  0  0  0
    9.3273   14.8428   22.7108 N   0  0  0  0  0  0  0  0  0  0  0  0
    8.9655   15.3811   21.3964 C   0  0  0  0  0  0  0  0  0  0  0  0
   10.2636   15.9979   20.9140 C   0  0  0  0  0  0  0  0  0  0  0  0
   11.3517   15.1178   21.5113 C   0  0  0  0  0  0  0  0  0  0  0  0
   10.6415   14.2219   22.5198 C   0  0  0  0  0  0  0  0  0  0  0  0
    7.7202   12.3802   25.1430 C   0  0  0  0  0  0  0  0  0  0  0  0
    7.8996   11.0449   24.7505 C   0  0  0  0  0  0  0  0  0  0  0  0
    7.1084   10.0445   25.3181 C   0  0  0  0  0  0  0  0  0  0  0  0
    6.1873   10.3947   26.2878 C   0  0  0  0  0  0  0  0  0  0  0  0
    6.0151   11.7291   26.6622 C   0  0  0  0  0  0  0  0  0  0  0  0
    6.7659   12.7429   26.0976 C   0  0  0  0  0  0  0  0  0  0  0  0
    4.9456   11.8126   27.6982 C   0  0  0  0  0  0  0  0  0  0  0  0
    4.8303   10.3244   28.0856 C   0  0  0  0  0  0  0  0  0  0  0  0
    5.2576    9.5440   26.9170 N   0  0  0  0  0  0  0  0  0  0  0  0
  1  2  2  0
  2  3  1  0
  3  4  1  0
  4  5  1  0
  5  6  1  0
  6  7  1  0
  7  8  1  0
  2  9  1  0
  9 10  2  0
 10 11  1  0
 11 12  2  0
 12 13  1  0
 13 14  2  0
 13 15  1  0
 15 16  1  0
 16 17  1  0
  8  4  1  0
 14  9  1  0
 17 12  1  0
M  END
>  <tags>  (12) 
{'openbind_a71ev2a_c1_knitwork_pure', 'fragmenstein_placed'}

>  <distance_score>  (12) 
0.774669

>  <ref_mols>  (12) 
A3990a,A1778a

>  <smiles>  (12) 
O=C(CN1CCCC1)c1ccc2c(c1)CCN2

>  <HIPPO Pose ID>  (12) 
6803

>  <inchikey>  (12) 
DERWPRAMEWIASL-UHFFFAOYSA-N

>  <ref_pdb>  (12) 
A3890a

>  <alias>  (12) 
None

>  <energy_score>  (12) 
-25.10845

>  <HIPPO Compound ID>  (12) 
50771

$$$$
None
     RDKit          3D

 22 23  0  0  0  0  0  0  0  0999 V2000
    6.3866   15.3428   22.4804 C   0  0  0  0  0  0  0  0  0  0  0  0
    6.7581   15.3599   23.9545 C   0  0  0  0  0  0  0  0  0  0  0  0
    7.7881   14.4070   24.3858 N   0  0  0  0  0  0  0  0  0  0  0  0
    9.1568   14.7007   23.9254 C   0  0  0  0  0  0  0  0  0  0  0  0
    9.8041   13.9557   22.7415 C   0  0  1  0  0  0  0  0  0  0  0  0
    8.9059   13.9420   21.6325 O   0  0  0  0  0  0  0  0  0  0  0  0
   11.2016   14.5277   22.4151 C   0  0  0  0  0  0  0  0  0  0  0  0
   11.1782   15.3166   21.2082 N   0  0  0  0  0  0  0  0  0  0  0  0
   11.6489   14.9272   19.9937 C   0  0  0  0  0  0  0  0  0  0  0  0
   11.0188   15.7198   19.0696 C   0  0  0  0  0  0  0  0  0  0  0  0
   10.2324   16.5964   19.8338 C   0  0  0  0  0  0  0  0  0  0  0  0
   10.3078   16.3388   21.1398 N   0  0  0  0  0  0  0  0  0  0  0  0
    7.3435   13.0175   24.4571 C   0  0  2  0  0  0  0  0  0  0  0  0
    6.2663   12.7822   25.5283 C   0  0  0  0  0  0  0  0  0  0  0  0
    6.3961   11.3062   25.9048 C   0  0  0  0  0  0  0  0  0  0  0  0
    7.7532   10.8896   25.5224 N   0  0  0  0  0  0  0  0  0  0  0  0
    7.7674    9.7747   24.5396 C   0  0  0  0  0  0  0  0  0  0  0  0
    8.9428    9.5585   23.5571 C   0  0  0  0  0  0  0  0  0  0  0  0
   10.1441    9.5109   24.1475 F   0  0  0  0  0  0  0  0  0  0  0  0
    8.7928    8.4187   22.8526 F   0  0  0  0  0  0  0  0  0  0  0  0
    8.9847   10.5836   22.6745 F   0  0  0  0  0  0  0  0  0  0  0  0
    8.4037   12.0889   25.0041 C   0  0  0  0  0  0  0  0  0  0  0  0
  1  2  1  0
  2  3  1  0
  3  4  1  0
  4  5  1  0
  5  6  1  6
  5  7  1  0
  7  8  1  0
  8  9  1  0
  9 10  2  0
 10 11  1  0
 11 12  2  0
 13  3  1  1
 13 14  1  0
 14 15  1  0
 15 16  1  0
 16 17  1  0
 17 18  1  0
 18 19  1  0
 18 20  1  0
 18 21  1  0
 16 22  1  0
 12  8  1  0
 22 13  1  0
M  END
>  <tags>  (13) 
{'openbind_a71ev2a_c1_knitwork_pure', 'fragmenstein_placed'}

>  <distance_score>  (13) 
0.975002

>  <ref_mols>  (13) 
A4418a,A0556a

>  <smiles>  (13) 
CCN(C[C@@H](O)Cn1cccn1)[C@@H]1CCN(CC(F)(F)F)C1

>  <HIPPO Pose ID>  (13) 
7453

>  <inchikey>  (13) 
GCVSXZYUPXGABM-UHFFFAOYSA-N

>  <ref_pdb>  (13) 
A3890a

>  <alias>  (13) 
None

>  <energy_score>  (13) 
-17.142075

>  <HIPPO Compound ID>  (13) 
55108

$$$$
None
     RDKit          3D

 22 23  0  0  0  0  0  0  0  0999 V2000
    3.7179   12.2168   27.9688 O   0  0  0  0  0  0  0  0  0  0  0  0
    3.9190   12.7115   26.9341 C   0  0  0  0  0  0  0  0  0  0  0  0
    3.1956   13.8732   26.2248 N   0  0  0  0  0  0  0  0  0  0  0  0
    2.1286   14.7354   26.6836 C   0  0  0  0  0  0  0  0  0  0  0  0
    0.8685   13.9970   27.1352 C   0  0  0  0  0  0  0  0  0  0  0  0
   -0.0235   13.5467   26.0856 N   0  0  0  0  0  0  0  0  0  0  0  0
   -1.3630   13.3037   26.2463 C   0  0  0  0  0  0  0  0  0  0  0  0
   -1.7826   12.7888   25.0427 C   0  0  0  0  0  0  0  0  0  0  0  0
   -0.7306   12.6953   24.1698 N   0  0  0  0  0  0  0  0  0  0  0  0
    0.2885   13.2410   24.7956 C   0  0  0  0  0  0  0  0  0  0  0  0
    5.1008   12.2523   26.1489 C   0  0  0  0  0  0  0  0  0  0  0  0
    5.4260   10.8976   26.0912 C   0  0  0  0  0  0  0  0  0  0  0  0
    6.5672   10.5436   25.3915 C   0  0  0  0  0  0  0  0  0  0  0  0
    7.3848   11.4324   24.7778 N   0  0  0  0  0  0  0  0  0  0  0  0
    7.0390   12.7314   24.8623 C   0  0  0  0  0  0  0  0  0  0  0  0
    7.8216   13.7034   24.2750 O   0  0  0  0  0  0  0  0  0  0  0  0
    8.8866   13.1726   23.4804 C   0  0  0  0  0  0  0  0  0  0  0  0
    9.6739   14.2890   22.8168 C   0  0  0  0  0  0  0  0  0  0  0  0
   10.0865   15.2005   23.7297 F   0  0  0  0  0  0  0  0  0  0  0  0
    8.9498   14.9303   21.8751 F   0  0  0  0  0  0  0  0  0  0  0  0
   10.7805   13.7947   22.2218 F   0  0  0  0  0  0  0  0  0  0  0  0
    5.9327   13.1909   25.5438 C   0  0  0  0  0  0  0  0  0  0  0  0
  1  2  2  0
  2  3  1  0
  3  4  1  0
  4  5  1  0
  5  6  1  0
  6  7  1  0
  7  8  2  0
  8  9  1  0
  9 10  2  0
  2 11  1  0
 11 12  2  0
 12 13  1  0
 13 14  2  0
 14 15  1  0
 15 16  1  0
 16 17  1  0
 17 18  1  0
 18 19  1  0
 18 20  1  0
 18 21  1  0
 15 22  2  0
 10  6  1  0
 22 11  1  0
M  END
>  <tags>  (14) 
{'openbind_a71ev2a_c1_knitwork_pure', 'fragmenstein_placed'}

>  <distance_score>  (14) 
0.968617

>  <ref_mols>  (14) 
A3371a,A3618a

>  <smiles>  (14) 
O=C(NCCn1ccnc1)c1ccnc(OCC(F)(F)F)c1

>  <HIPPO Pose ID>  (14) 
8090

>  <inchikey>  (14) 
OOQQOYYILDTRKK-UHFFFAOYSA-N

>  <ref_pdb>  (14) 
A3890a

>  <alias>  (14) 
None

>  <energy_score>  (14) 
-16.059541

>  <HIPPO Compound ID>  (14) 
52055

$$$$
None
     RDKit          3D

 23 26  0  0  0  0  0  0  0  0999 V2000
   18.9996   -1.3740   22.3339 C   0  0  0  0  0  0  0  0  0  0  0  0
   19.0417   -2.8978   22.1060 C   0  0  2  0  0  0  0  0  0  0  0  0
   19.7799   -3.5019   23.2972 C   0  0  0  0  0  0  0  0  0  0  0  0
   19.0571   -4.0727   24.3517 C   0  0  0  0  0  0  0  0  0  0  0  0
   19.7509   -4.5785   25.4397 C   0  0  0  0  0  0  0  0  0  0  0  0
   21.0960   -4.5577   25.5499 N   0  0  0  0  0  0  0  0  0  0  0  0
   21.7770   -3.9994   24.5255 C   0  0  0  0  0  0  0  0  0  0  0  0
   21.1750   -3.4603   23.4000 C   0  0  0  0  0  0  0  0  0  0  0  0
   19.6579   -3.2512   20.8003 N   0  0  0  0  0  0  0  0  0  0  0  0
   19.6672   -4.7152   20.5354 C   0  0  0  0  0  0  0  0  0  0  0  0
   18.2864   -5.3769   20.3276 C   0  0  0  0  0  0  0  0  0  0  0  0
   17.4606   -4.6547   19.3474 N   0  0  0  0  0  0  0  0  0  0  0  0
   16.3021   -5.2669   18.8426 C   0  0  0  0  0  0  0  0  0  0  0  0
   15.0655   -4.5631   18.7532 C   0  0  0  0  0  0  0  0  0  0  0  0
   13.8906   -5.1091   18.2238 C   0  0  0  0  0  0  0  0  0  0  0  0
   13.8632   -6.4222   17.7722 C   0  0  0  0  0  0  0  0  0  0  0  0
   15.0690   -7.1213   17.8165 C   0  0  0  0  0  0  0  0  0  0  0  0
   15.3713   -8.3968   17.4214 N   0  0  0  0  0  0  0  0  0  0  0  0
   16.6701   -8.7177   17.5224 N   0  0  0  0  0  0  0  0  0  0  0  0
   17.2086   -7.6046   18.0307 C   0  0  0  0  0  0  0  0  0  0  0  0
   16.2607   -6.5838   18.3042 C   0  0  0  0  0  0  0  0  0  0  0  0
   17.4981   -3.1826   19.4431 C   0  0  0  0  0  0  0  0  0  0  0  0
   18.9362   -2.6524   19.6460 C   0  0  0  0  0  0  0  0  0  0  0  0
  2  1  1  1
  2  3  1  0
  3  4  2  0
  4  5  1  0
  5  6  2  0
  6  7  1  0
  7  8  2  0
  2  9  1  0
  9 10  1  0
 10 11  1  0
 11 12  1  0
 12 13  1  0
 13 14  2  0
 14 15  1  0
 15 16  2  0
 16 17  1  0
 17 18  1  0
 18 19  1  0
 19 20  2  0
 20 21  1  0
 12 22  1  0
 22 23  1  0
  8  3  1  0
 23  9  1  0
 21 13  1  0
 21 17  2  0
M  END
>  <tags>  (15) 
{'openbind_a71ev2a_c1_knitwork_pure', 'fragmenstein_placed'}

>  <distance_score>  (15) 
0.930238

>  <ref_mols>  (15) 
A3181b,A1105b

>  <smiles>  (15) 
C[C@H](c1ccncc1)N1CCN(c2cccc3[nH]ncc23)CC1

>  <HIPPO Pose ID>  (15) 
8760

>  <inchikey>  (15) 
SADILTYBWIPMCP-UHFFFAOYSA-N

>  <ref_pdb>  (15) 
A3890a

>  <alias>  (15) 
None

>  <energy_score>  (15) 
-62.895159

>  <HIPPO Compound ID>  (15) 
48060

$$$$
None
     RDKit          3D

 21 23  0  0  0  0  0  0  0  0999 V2000
   12.6242   13.2980   22.6587 C   0  0  0  0  0  0  0  0  0  0  0  0
   11.1861   13.0106   22.6810 N   0  0  0  0  0  0  0  0  0  0  0  0
   10.7102   12.7960   24.0615 C   0  0  0  0  0  0  0  0  0  0  0  0
    9.7541   11.6708   24.1353 C   0  0  0  0  0  0  0  0  0  0  0  0
    9.9228   10.4645   23.6289 N   0  0  0  0  0  0  0  0  0  0  0  0
    8.9618    9.6372   24.1539 N   0  0  0  0  0  0  0  0  0  0  0  0
    8.2172   10.3530   24.9622 C   0  0  0  0  0  0  0  0  0  0  0  0
    7.1280   10.0222   25.8095 C   0  0  0  0  0  0  0  0  0  0  0  0
    6.5397   10.9814   26.5474 C   0  0  0  0  0  0  0  0  0  0  0  0
    6.9871   12.3628   26.4851 C   0  0  0  0  0  0  0  0  0  0  0  0
    8.0239   12.6783   25.6898 C   0  0  0  0  0  0  0  0  0  0  0  0
    8.6398   11.6721   24.9436 N   0  0  0  0  0  0  0  0  0  0  0  0
   10.2898   14.1946   21.8977 S   0  0  0  0  0  0  0  0  0  0  0  0
   10.5612   15.3378   22.7192 O   0  0  0  0  0  0  0  0  0  0  0  0
    8.9187   13.7743   21.7131 O   0  0  0  0  0  0  0  0  0  0  0  0
   10.9132   14.7139   20.3598 C   0  0  0  0  0  0  0  0  0  0  0  0
   11.9480   14.2962   19.5492 C   0  0  0  0  0  0  0  0  0  0  0  0
   12.0430   15.0267   18.4063 N   0  0  0  0  0  0  0  0  0  0  0  0
   11.1241   15.9517   18.5334 C   0  0  0  0  0  0  0  0  0  0  0  0
   10.4485   15.8343   19.7084 N   0  0  0  0  0  0  0  0  0  0  0  0
    9.5233   16.8166   20.2114 C   0  0  0  0  0  0  0  0  0  0  0  0
  1  2  1  0
  2  3  1  0
  3  4  1  0
  4  5  2  0
  5  6  1  0
  6  7  2  0
  7  8  1  0
  8  9  2  0
  9 10  1  0
 10 11  2  0
 11 12  1  0
  2 13  1  0
 13 14  2  0
 13 15  2  0
 13 16  1  0
 16 17  2  0
 17 18  1  0
 18 19  2  0
 19 20  1  0
 20 21  1  0
 12  4  1  0
 20 16  1  0
 12  7  1  0
M  END
>  <tags>  (16) 
{'openbind_a71ev2a_c1_knitwork_pure', 'fragmenstein_placed'}

>  <distance_score>  (16) 
0.994028

>  <ref_mols>  (16) 
A2972a,A1293a

>  <smiles>  (16) 
CN(Cc1nnc2ccccn12)S(=O)(=O)c1cncn1C

>  <HIPPO Pose ID>  (16) 
8892

>  <inchikey>  (16) 
DRFIGHDMHNBPNI-UHFFFAOYSA-N

>  <ref_pdb>  (16) 
A3890a

>  <alias>  (16) 
None

>  <energy_score>  (16) 
-30.862594

>  <HIPPO Compound ID>  (16) 
52315

$$$$
None
     RDKit          3D

 14 14  0  0  0  0  0  0  0  0999 V2000
    6.3061   11.5952   26.8686 C   0  0  0  0  0  0  0  0  0  0  0  0
    6.9595   10.6760   26.0014 O   0  0  0  0  0  0  0  0  0  0  0  0
    8.0386   11.2276   25.3442 C   0  0  0  0  0  0  0  0  0  0  0  0
    8.6733   10.3760   24.4696 C   0  0  0  0  0  0  0  0  0  0  0  0
    9.6985   10.8805   23.6909 C   0  0  0  0  0  0  0  0  0  0  0  0
   10.3265   10.1692   22.7185 O   0  0  0  0  0  0  0  0  0  0  0  0
    9.9934    8.8007   22.5588 C   0  0  0  0  0  0  0  0  0  0  0  0
   10.1091   12.2083   23.8542 C   0  0  0  0  0  0  0  0  0  0  0  0
   11.2626   12.7859   23.0703 C   0  0  0  0  0  0  0  0  0  0  0  0
   10.8546   13.9169   22.1515 C   0  0  0  0  0  0  0  0  0  0  0  0
   11.9361   14.2206   21.1491 C   0  0  0  0  0  0  0  0  0  0  0  0
   12.7777   15.0957   21.3212 O   0  0  0  0  0  0  0  0  0  0  0  0
    9.4183   12.9720   24.7910 C   0  0  0  0  0  0  0  0  0  0  0  0
    8.3901   12.5110   25.5405 N   0  0  0  0  0  0  0  0  0  0  0  0
  1  2  1  0
  2  3  1  0
  3  4  2  0
  4  5  1  0
  5  6  1  0
  6  7  1  0
  5  8  2  0
  8  9  1  0
  9 10  1  0
 10 11  1  0
 11 12  2  0
  8 13  1  0
 13 14  2  0
 14  3  1  0
M  END
>  <tags>  (17) 
{'openbind_a71ev2a_c1_knitwork_pure', 'fragmenstein_placed'}

>  <distance_score>  (17) 
0.844823

>  <ref_mols>  (17) 
A3975a,A2629a

>  <smiles>  (17) 
COc1cc(OC)c(CCC=O)cn1

>  <HIPPO Pose ID>  (17) 
9109

>  <inchikey>  (17) 
IASQNHULNRESLR-UHFFFAOYSA-N

>  <ref_pdb>  (17) 
A3890a

>  <alias>  (17) 
None

>  <energy_score>  (17) 
-21.696856

>  <HIPPO Compound ID>  (17) 
46014

$$$$
None
     RDKit          3D

 18 19  0  0  0  0  0  0  0  0999 V2000
    9.4329   15.6277   24.6042 C   0  0  0  0  0  0  0  0  0  0  0  0
    8.7952   14.2917   24.3709 C   0  0  0  0  0  0  0  0  0  0  0  0
    9.5996   13.2845   23.5189 C   0  0  2  0  0  0  0  0  0  0  0  0
    9.6985   13.6236   22.0942 N   0  0  0  0  0  0  0  0  0  0  0  0
   10.4484   14.8196   21.6793 C   0  0  0  0  0  0  0  0  0  0  0  0
   11.9868   14.6898   21.6551 C   0  0  0  0  0  0  0  0  0  0  0  0
   12.6451   15.7926   20.8795 C   0  0  0  0  0  0  0  0  0  0  0  0
   13.5356   16.7782   21.2577 C   0  0  0  0  0  0  0  0  0  0  0  0
   13.8636   17.6054   20.2147 N   0  0  0  0  0  0  0  0  0  0  0  0
   13.2468   17.0878   19.1779 C   0  0  0  0  0  0  0  0  0  0  0  0
   12.5107   15.9896   19.5257 N   0  0  0  0  0  0  0  0  0  0  0  0
   11.7400   15.1999   18.6026 C   0  0  0  0  0  0  0  0  0  0  0  0
    8.9746   11.8788   23.6985 C   0  0  0  0  0  0  0  0  0  0  0  0
    7.8445   11.6166   24.4882 C   0  0  0  0  0  0  0  0  0  0  0  0
    7.4398   10.3089   24.7031 C   0  0  0  0  0  0  0  0  0  0  0  0
    8.0544    9.2395   24.1752 N   0  0  0  0  0  0  0  0  0  0  0  0
    9.1026    9.4859   23.3691 C   0  0  0  0  0  0  0  0  0  0  0  0
    9.5769   10.7652   23.1072 C   0  0  0  0  0  0  0  0  0  0  0  0
  1  2  1  0
  3  2  1  1
  3  4  1  0
  4  5  1  0
  5  6  1  0
  6  7  1  0
  7  8  2  0
  8  9  1  0
  9 10  2  0
 10 11  1  0
 11 12  1  0
  3 13  1  0
 13 14  2  0
 14 15  1  0
 15 16  2  0
 16 17  1  0
 17 18  2  0
 11  7  1  0
 18 13  1  0
M  END
>  <tags>  (18) 
{'openbind_a71ev2a_c1_knitwork_pure', 'fragmenstein_placed'}

>  <distance_score>  (18) 
0.914347

>  <ref_mols>  (18) 
A3207a,A3371a

>  <smiles>  (18) 
CC[C@H](NCCc1cncn1C)c1ccncc1

>  <HIPPO Pose ID>  (18) 
11635

>  <inchikey>  (18) 
XDRXTMXRRKPSOB-UHFFFAOYSA-N

>  <ref_pdb>  (18) 
A1146a

>  <alias>  (18) 
None

>  <energy_score>  (18) 
-17.769521

>  <HIPPO Compound ID>  (18) 
53040

$$$$
None
     RDKit          3D

 19 19  0  0  0  0  0  0  0  0999 V2000
    9.4325    8.7431   23.1002 C   0  0  0  0  0  0  0  0  0  0  0  0
    9.5730   10.1303   23.3384 O   0  0  0  0  0  0  0  0  0  0  0  0
    8.7401   10.7197   24.2427 C   0  0  0  0  0  0  0  0  0  0  0  0
    7.8611   10.0815   25.1020 C   0  0  0  0  0  0  0  0  0  0  0  0
    7.0262   10.8473   25.9135 C   0  0  0  0  0  0  0  0  0  0  0  0
    7.1340   12.2292   25.8535 C   0  0  0  0  0  0  0  0  0  0  0  0
    5.9433   13.2954   26.8574 Br  0  0  0  0  0  0  0  0  0  0  0  0
    8.0307   12.8713   25.0879 N   0  0  0  0  0  0  0  0  0  0  0  0
    8.7816   12.1138   24.2774 C   0  0  0  0  0  0  0  0  0  0  0  0
    9.5466   12.7221   23.3109 N   0  0  0  0  0  0  0  0  0  0  0  0
    9.8891   14.2146   23.0929 C   0  0  0  0  0  0  0  0  0  0  0  0
    9.6395   15.1493   23.7422 O   0  0  0  0  0  0  0  0  0  0  0  0
   10.5650   14.2259   21.7397 C   0  0  0  0  0  0  0  0  0  0  0  0
   10.8126   15.6285   21.2165 C   0  0  1  0  0  0  0  0  0  0  0  0
   12.1857   16.0960   21.6747 C   0  0  0  0  0  0  0  0  0  0  0  0
   10.6282   15.6216   19.7092 C   0  0  0  0  0  0  0  0  0  0  0  0
   11.4775   14.7784   19.0871 F   0  0  0  0  0  0  0  0  0  0  0  0
   10.7722   16.8442   19.1783 F   0  0  0  0  0  0  0  0  0  0  0  0
    9.3711   15.2243   19.4100 F   0  0  0  0  0  0  0  0  0  0  0  0
  1  2  1  0
  2  3  1  0
  3  4  2  0
  4  5  1  0
  5  6  2  0
  6  7  1  0
  6  8  1  0
  8  9  2  0
  9 10  1  0
 10 11  1  0
 11 12  2  0
 11 13  1  0
 13 14  1  0
 14 15  1  6
 14 16  1  0
 16 17  1  0
 16 18  1  0
 16 19  1  0
  9  3  1  0
M  END
>  <tags>  (19) 
{'openbind_a71ev2a_c1_knitwork_pure', 'fragmenstein_placed'}

>  <distance_score>  (19) 
0.653432

>  <ref_mols>  (19) 
A4274b,A1445a

>  <smiles>  (19) 
COc1ccc(Br)nc1NC(=O)C[C@@H](C)C(F)(F)F

>  <HIPPO Pose ID>  (19) 
15274

>  <inchikey>  (19) 
PNWBUTYUCZZJJG-UHFFFAOYSA-N

>  <ref_pdb>  (19) 
A5079b

>  <alias>  (19) 
None

>  <energy_score>  (19) 
-8.412332

>  <HIPPO Compound ID>  (19) 
114736

$$$$
None
     RDKit          3D

 21 21  0  0  0  0  0  0  0  0999 V2000
    9.3183    8.7674   23.3432 C   0  0  0  0  0  0  0  0  0  0  0  0
    9.4145   10.1746   23.4724 O   0  0  0  0  0  0  0  0  0  0  0  0
    8.5979   10.8109   24.3661 C   0  0  0  0  0  0  0  0  0  0  0  0
    7.6235   10.2327   25.1695 C   0  0  0  0  0  0  0  0  0  0  0  0
    6.8313   11.0708   25.9638 C   0  0  0  0  0  0  0  0  0  0  0  0
    5.6933   10.5512   26.6978 N   0  0  0  0  0  0  0  0  0  0  0  0
    5.3520   11.1438   27.7302 O   0  0  0  0  0  0  0  0  0  0  0  0
    5.1417    9.5409   26.2531 O   0  0  0  0  0  0  0  0  0  0  0  0
    7.0844   12.4297   25.9987 C   0  0  0  0  0  0  0  0  0  0  0  0
    8.0606   13.0026   25.2651 N   0  0  0  0  0  0  0  0  0  0  0  0
    8.7498   12.2017   24.4291 C   0  0  0  0  0  0  0  0  0  0  0  0
    9.5401   12.7726   23.4583 N   0  0  0  0  0  0  0  0  0  0  0  0
    9.8637   14.2586   23.1716 C   0  0  0  0  0  0  0  0  0  0  0  0
    9.5732   15.2218   23.7596 O   0  0  0  0  0  0  0  0  0  0  0  0
   10.5911   14.2223   21.8422 C   0  0  0  0  0  0  0  0  0  0  0  0
   10.8381   15.6115   21.2740 C   0  0  1  0  0  0  0  0  0  0  0  0
   12.2204   16.0842   21.6942 C   0  0  0  0  0  0  0  0  0  0  0  0
   10.6249   15.5817   19.7704 C   0  0  0  0  0  0  0  0  0  0  0  0
   11.4578   14.7254   19.1441 F   0  0  0  0  0  0  0  0  0  0  0  0
   10.7686   16.7958   19.2169 F   0  0  0  0  0  0  0  0  0  0  0  0
    9.3596   15.1870   19.5042 F   0  0  0  0  0  0  0  0  0  0  0  0
  1  2  1  0
  2  3  1  0
  3  4  2  0
  4  5  1  0
  5  6  1  0
  6  7  2  0
  6  8  1  0
  5  9  2  0
  9 10  1  0
 10 11  2  0
 11 12  1  0
 12 13  1  0
 13 14  2  0
 13 15  1  0
 15 16  1  0
 16 17  1  6
 16 18  1  0
 18 19  1  0
 18 20  1  0
 18 21  1  0
 11  3  1  0
M  CHG  2   6   1   8  -1
M  END
>  <tags>  (20) 
{'openbind_a71ev2a_c1_knitwork_pure', 'fragmenstein_placed'}

>  <distance_score>  (20) 
0.611015

>  <ref_mols>  (20) 
A4274b,A1445a

>  <smiles>  (20) 
COc1cc([N+](=O)[O-])cnc1NC(=O)C[C@@H](C)C(F)(F)F

>  <HIPPO Pose ID>  (20) 
15275

>  <inchikey>  (20) 
BMJHPSVXCNOHQF-UHFFFAOYSA-N

>  <ref_pdb>  (20) 
A5079b

>  <alias>  (20) 
None

>  <energy_score>  (20) 
-14.009552

>  <HIPPO Compound ID>  (20) 
47019

$$$$
None
     RDKit          3D

 15 17  0  0  0  0  0  0  0  0999 V2000
   12.6441   15.7070   22.9871 O   0  0  0  0  0  0  0  0  0  0  0  0
   11.9078   15.0054   22.2997 C   0  0  0  0  0  0  0  0  0  0  0  0
   11.2906   13.7204   22.8058 C   0  0  0  0  0  0  0  0  0  0  0  0
   10.8885   13.7653   24.2828 C   0  0  0  0  0  0  0  0  0  0  0  0
    9.9718   12.6389   24.7190 C   0  0  0  0  0  0  0  0  0  0  0  0
    9.7745   11.3457   23.9534 C   0  0  0  0  0  0  0  0  0  0  0  0
    8.6533   12.3311   24.0503 C   0  0  0  0  0  0  0  0  0  0  0  0
   10.3462   15.1264   24.6915 C   0  0  0  0  0  0  0  0  0  0  0  0
    9.0663   15.3796   25.4528 C   0  0  0  0  0  0  0  0  0  0  0  0
    9.1395   15.6855   23.9860 C   0  0  0  0  0  0  0  0  0  0  0  0
   11.4942   15.3621   20.9616 C   0  0  0  0  0  0  0  0  0  0  0  0
   10.6244   16.3990   20.7023 C   0  0  0  0  0  0  0  0  0  0  0  0
   10.1427   16.3155   19.0741 S   0  0  0  0  0  0  0  0  0  0  0  0
   11.1905   15.0090   18.8140 C   0  0  0  0  0  0  0  0  0  0  0  0
   11.8158   14.5608   19.8744 N   0  0  0  0  0  0  0  0  0  0  0  0
  1  2  2  0
  2  3  1  0
  3  4  1  0
  4  5  1  0
  5  6  1  0
  6  7  1  0
  4  8  1  0
  8  9  1  0
  9 10  1  0
  2 11  1  0
 11 12  2  0
 12 13  1  0
 13 14  1  0
 14 15  2  0
  7  5  1  0
 10  8  1  0
 15 11  1  0
M  END
>  <tags>  (21) 
{'openbind_a71ev2a_c1_knitwork_pure', 'fragmenstein_placed'}

>  <distance_score>  (21) 
0.983219

>  <ref_mols>  (21) 
A3306a,A4445b

>  <smiles>  (21) 
O=C(CC(C1CC1)C1CC1)c1cscn1

>  <HIPPO Pose ID>  (21) 
15638

>  <inchikey>  (21) 
NCVNEKNWZFVLLU-UHFFFAOYSA-N

>  <ref_pdb>  (21) 
A1140a

>  <alias>  (21) 
None

>  <energy_score>  (21) 
-49.579305

>  <HIPPO Compound ID>  (21) 
96278

$$$$
None
     RDKit          3D

 15 16  0  0  0  0  0  0  0  0999 V2000
   26.7196   23.2751   22.3085 C   0  0  0  0  0  0  0  0  0  0  0  0
   25.4975   22.5183   22.6894 C   0  0  1  0  0  0  0  0  0  0  0  0
   24.3831   22.4201   21.6842 C   0  0  0  0  0  0  0  0  0  0  0  0
   25.0641   21.1578   22.1505 C   0  0  1  0  0  0  0  0  0  0  0  0
   25.7826   20.2830   21.1462 C   0  0  2  0  0  0  0  0  0  0  0  0
   25.8202   18.8522   21.6845 C   0  0  0  0  0  0  0  0  0  0  0  0
   27.1097   20.7669   20.8472 N   0  0  0  0  0  0  0  0  0  0  0  0
   27.6281   21.6228   19.6551 C   0  0  0  0  0  0  0  0  0  0  0  0
   27.0462   22.1290   18.7777 O   0  0  0  0  0  0  0  0  0  0  0  0
   29.1421   21.8197   19.8585 C   0  0  2  0  0  0  0  0  0  0  0  0
   29.5758   23.2187   19.4009 C   0  0  0  0  0  0  0  0  0  0  0  0
   31.0883   23.3828   19.5325 C   0  0  0  0  0  0  0  0  0  0  0  0
   31.8315   22.2523   18.8232 C   0  0  0  0  0  0  0  0  0  0  0  0
   31.4007   20.9386   19.3076 N   0  0  0  0  0  0  0  0  0  0  0  0
   29.9530   20.7650   19.1077 C   0  0  0  0  0  0  0  0  0  0  0  0
  2  1  1  6
  2  3  1  0
  4  3  1  6
  4  5  1  0
  5  6  1  1
  5  7  1  0
  7  8  1  0
  8  9  2  0
 10  8  1  6
 10 11  1  0
 11 12  1  0
 12 13  1  0
 13 14  1  0
 14 15  1  0
  4  2  1  0
 15 10  1  0
M  END
>  <tags>  (22) 
{'openbind_a71ev2a_c1_knitwork_pure', 'fragmenstein_placed'}

>  <distance_score>  (22) 
0.999899

>  <ref_mols>  (22) 
A4214b,A3181b,A1145a

>  <smiles>  (22) 
C[C@H](NC(=O)[C@@H]1CCCNC1)[C@@H]1C[C@@H]1C

>  <HIPPO Pose ID>  (22) 
15897

>  <inchikey>  (22) 
HIPQRAVJSVNPNW-UHFFFAOYSA-N

>  <ref_pdb>  (22) 
A1140a

>  <alias>  (22) 
None

>  <energy_score>  (22) 
-1.337912

>  <HIPPO Compound ID>  (22) 
51690

$$$$
None
     RDKit          3D

 23 25  0  0  0  0  0  0  0  0999 V2000
    7.7219   14.7147   21.7044 C   0  0  0  0  0  0  0  0  0  0  0  0
    8.8687   14.0500   22.4298 C   0  0  0  0  0  0  0  0  0  0  0  0
   10.3788   14.3156   22.1848 C   0  0  2  0  0  0  0  0  0  0  0  0
   10.9133   14.4020   20.7711 C   0  0  0  0  0  0  0  0  0  0  0  0
   11.1190   15.7196   20.2080 N   0  0  0  0  0  0  0  0  0  0  0  0
   10.8324   15.5961   18.7699 C   0  0  0  0  0  0  0  0  0  0  0  0
    9.3566   15.8380   18.8188 C   0  0  0  0  0  0  0  0  0  0  0  0
    9.2971   17.1097   19.6441 C   0  0  0  0  0  0  0  0  0  0  0  0
   10.2362   16.7690   20.7451 C   0  0  0  0  0  0  0  0  0  0  0  0
   11.1406   13.2147   22.7207 N   0  0  0  0  0  0  0  0  0  0  0  0
   11.0457   12.8967   24.3076 S   0  0  0  0  0  0  0  0  0  0  0  0
   10.8980   14.1016   25.0831 O   0  0  0  0  0  0  0  0  0  0  0  0
   12.1826   12.0338   24.4899 O   0  0  0  0  0  0  0  0  0  0  0  0
    9.5976   11.9423   24.5014 C   0  0  0  0  0  0  0  0  0  0  0  0
    9.3988   10.7227   23.8722 C   0  0  0  0  0  0  0  0  0  0  0  0
    8.1822   10.2408   24.2568 N   0  0  0  0  0  0  0  0  0  0  0  0
    7.5717   11.1295   25.1094 C   0  0  0  0  0  0  0  0  0  0  0  0
    6.3422   11.0253   25.7712 C   0  0  0  0  0  0  0  0  0  0  0  0
    5.9010   12.1073   26.5318 C   0  0  0  0  0  0  0  0  0  0  0  0
    6.6617   13.2642   26.6150 C   0  0  0  0  0  0  0  0  0  0  0  0
    7.8949   13.3443   25.9663 C   0  0  0  0  0  0  0  0  0  0  0  0
    8.5855   14.4847   26.0920 F   0  0  0  0  0  0  0  0  0  0  0  0
    8.3992   12.2538   25.2209 C   0  0  0  0  0  0  0  0  0  0  0  0
  1  2  1  0
  3  2  1  6
  3  4  1  0
  4  5  1  0
  5  6  1  0
  6  7  1  0
  7  8  1  0
  8  9  1  0
  3 10  1  0
 10 11  1  0
 11 12  2  0
 11 13  2  0
 11 14  1  0
 14 15  2  0
 15 16  1  0
 16 17  1  0
 17 18  2  0
 18 19  1  0
 19 20  2  0
 20 21  1  0
 21 22  1  0
 21 23  2  0
  9  5  1  0
 23 14  1  0
 23 17  1  0
M  END
>  <tags>  (23) 
{'openbind_a71ev2a_c1_knitwork_pure', 'fragmenstein_placed'}

>  <distance_score>  (23) 
0.622115

>  <ref_mols>  (23) 
A1140a,A3568a

>  <smiles>  (23) 
CC[C@H](CN1CCCC1)NS(=O)(=O)c1c[nH]c2cccc(F)c12

>  <HIPPO Pose ID>  (23) 
16706

>  <inchikey>  (23) 
VSXISTKWWYBVFB-UHFFFAOYSA-N

>  <ref_pdb>  (23) 
A1140a

>  <alias>  (23) 
None

>  <energy_score>  (23) 
-1.434273

>  <HIPPO Compound ID>  (23) 
46618

$$$$
None
     RDKit          3D

 16 18  0  0  0  0  0  0  0  0999 V2000
   10.5534    8.4296   23.2327 Br  0  0  0  0  0  0  0  0  0  0  0  0
   10.2121   10.1299   23.9217 C   0  0  0  0  0  0  0  0  0  0  0  0
   11.2477   11.0544   23.9107 C   0  0  0  0  0  0  0  0  0  0  0  0
   11.0311   12.3491   24.3338 C   0  0  0  0  0  0  0  0  0  0  0  0
    9.7313   12.7227   24.5721 C   0  0  0  0  0  0  0  0  0  0  0  0
    8.6894   11.7932   24.6362 C   0  0  0  0  0  0  0  0  0  0  0  0
    8.9453   10.4659   24.3789 C   0  0  0  0  0  0  0  0  0  0  0  0
    7.4012   12.4002   24.8243 N   0  0  0  0  0  0  0  0  0  0  0  0
    6.9371   12.3369   26.2366 C   0  0  1  0  0  0  0  0  0  0  0  0
    6.0160   13.5103   26.6366 C   0  0  0  0  0  0  0  0  0  0  0  0
    5.1750   13.2356   27.8903 C   0  0  0  0  0  0  0  0  0  0  0  0
    5.6787   12.0344   28.6819 C   0  0  0  0  0  0  0  0  0  0  0  0
    5.6858   10.8269   27.8661 N   0  0  0  0  0  0  0  0  0  0  0  0
    6.1272   11.0519   26.4850 C   0  0  0  0  0  0  0  0  0  0  0  0
    7.7368   13.7546   24.3012 C   0  0  0  0  0  0  0  0  0  0  0  0
    9.1716   14.0844   24.7341 C   0  0  0  0  0  0  0  0  0  0  0  0
  1  2  1  0
  2  3  2  0
  3  4  1  0
  4  5  2  0
  5  6  1  0
  6  7  2  0
  6  8  1  0
  9  8  1  6
  9 10  1  0
 10 11  1  0
 11 12  1  0
 12 13  1  0
 13 14  1  0
  8 15  1  0
 15 16  1  0
  7  2  1  0
 14  9  1  0
 16  5  1  0
M  END
>  <tags>  (24) 
{'openbind_a71ev2a_c1_knitwork_pure', 'fragmenstein_placed'}

>  <distance_score>  (24) 
0.991669

>  <ref_mols>  (24) 
A3858a,A4308a,A3587a,A4943b,A4291a,A1778a

>  <smiles>  (24) 
Brc1ccc2c(c1)N([C@H]1CCCNC1)CC2

>  <HIPPO Pose ID>  (24) 
18206

>  <inchikey>  (24) 
RVJZPQWJVCMQJG-UHFFFAOYSA-N

>  <ref_pdb>  (24) 
A1180a

>  <alias>  (24) 
None

>  <energy_score>  (24) 
-9.937376

>  <HIPPO Compound ID>  (24) 
47002

$$$$
None
     RDKit          3D

 14 14  0  0  0  0  0  0  0  0999 V2000
    8.2707   14.9932   26.3212 C   0  0  0  0  0  0  0  0  0  0  0  0
    8.2615   14.5101   24.8671 C   0  0  2  0  0  0  0  0  0  0  0  0
    6.9807   14.9883   24.1869 C   0  0  0  0  0  0  0  0  0  0  0  0
    7.1090   14.8637   22.4174 S   0  0  0  0  0  0  0  0  0  0  0  0
    5.7767   15.7664   21.9601 N   0  0  0  0  0  0  0  0  0  0  0  0
    8.2649   15.5959   21.9639 O   0  0  0  0  0  0  0  0  0  0  0  0
    6.8567   13.5102   21.9684 O   0  0  0  0  0  0  0  0  0  0  0  0
    8.4298   13.0617   24.7785 N   0  0  0  0  0  0  0  0  0  0  0  0
    9.3966   12.4385   23.9051 C   0  0  0  0  0  0  0  0  0  0  0  0
    8.8610   11.0290   23.6902 C   0  0  1  0  0  0  0  0  0  0  0  0
    9.8491   10.0275   23.7590 O   0  0  0  0  0  0  0  0  0  0  0  0
    7.8339   10.7889   24.7804 C   0  0  0  0  0  0  0  0  0  0  0  0
    7.5241   12.1559   25.2895 C   0  0  0  0  0  0  0  0  0  0  0  0
    6.6218   12.4227   26.0645 O   0  0  0  0  0  0  0  0  0  0  0  0
  2  1  1  1
  2  3  1  0
  3  4  1  0
  4  5  1  0
  4  6  2  0
  4  7  2  0
  2  8  1  0
  8  9  1  0
  9 10  1  0
 10 11  1  1
 10 12  1  0
 12 13  1  0
 13 14  2  0
 13  8  1  0
M  END
>  <tags>  (25) 
{'openbind_a71ev2a_c1_knitwork_pure', 'fragmenstein_placed'}

>  <distance_score>  (25) 
0.936937

>  <ref_mols>  (25) 
A3956a,A0719a

>  <smiles>  (25) 
C[C@H](CS(N)(=O)=O)N1C[C@@H](O)CC1=O

>  <HIPPO Pose ID>  (25) 
19678

>  <inchikey>  (25) 
RVAWSFXUAFVMPF-UHFFFAOYSA-N

>  <ref_pdb>  (25) 
A0528b

>  <alias>  (25) 
None

>  <energy_score>  (25) 
-39.003793

>  <HIPPO Compound ID>  (25) 
75387

$$$$
None
     RDKit          3D

 24 26  0  0  0  0  0  0  0  0999 V2000
   11.5401   16.1377    0.5086 C   0  0  0  0  0  0  0  0  0  0  0  0
   11.7950   15.9616    2.0087 C   0  0  2  0  0  0  0  0  0  0  0  0
   10.6253   16.5640    2.8523 C   0  0  0  0  0  0  0  0  0  0  0  0
    9.5393   15.5783    2.9344 N   0  0  0  0  0  0  0  0  0  0  0  0
    8.4890   15.8607    3.9452 C   0  0  0  0  0  0  0  0  0  0  0  0
    7.7931   14.5761    4.3211 C   0  0  0  0  0  0  0  0  0  0  0  0
    7.6143   13.4032    3.5429 C   0  0  0  0  0  0  0  0  0  0  0  0
    7.0236   12.5098    4.3943 C   0  0  0  0  0  0  0  0  0  0  0  0
    6.8186   13.1024    5.5931 O   0  0  0  0  0  0  0  0  0  0  0  0
    7.2691   14.4111    5.5488 N   0  0  0  0  0  0  0  0  0  0  0  0
   13.1712   16.5395    2.4062 C   0  0  0  0  0  0  0  0  0  0  0  0
   14.2596   15.6005    2.1622 N   0  0  0  0  0  0  0  0  0  0  0  0
   15.2351   14.8948    3.1618 C   0  0  0  0  0  0  0  0  0  0  0  0
   15.2581   14.9042    4.3331 O   0  0  0  0  0  0  0  0  0  0  0  0
   16.2182   14.0241    2.3460 C   0  0  0  0  0  0  0  0  0  0  0  0
   17.6597   14.4242    2.4922 C   0  0  0  0  0  0  0  0  0  0  0  0
   18.6058   13.5107    2.7798 N   0  0  0  0  0  0  0  0  0  0  0  0
   19.7594   14.2085    2.7390 N   0  0  0  0  0  0  0  0  0  0  0  0
   19.6071   15.5120    2.3522 C   0  0  0  0  0  0  0  0  0  0  0  0
   20.5443   16.5250    2.1267 C   0  0  0  0  0  0  0  0  0  0  0  0
   20.0483   17.7804    1.7671 C   0  0  0  0  0  0  0  0  0  0  0  0
   18.6778   18.0031    1.6414 C   0  0  0  0  0  0  0  0  0  0  0  0
   17.7582   16.9712    1.8649 C   0  0  0  0  0  0  0  0  0  0  0  0
   18.2358   15.6993    2.2268 C   0  0  0  0  0  0  0  0  0  0  0  0
  2  1  1  6
  2  3  1  0
  3  4  1  0
  4  5  1  0
  5  6  1  0
  6  7  1  0
  7  8  2  0
  8  9  1  0
  9 10  1  0
  2 11  1  0
 11 12  1  0
 12 13  1  0
 13 14  2  0
 13 15  1  0
 15 16  1  0
 16 17  2  0
 17 18  1  0
 18 19  1  0
 19 20  2  0
 20 21  1  0
 21 22  2  0
 22 23  1  0
 23 24  2  0
 10  6  2  0
 24 16  1  0
 24 19  1  0
M  END
>  <tags>  (26) 
{'openbind_a71ev2a_c1_knitwork_pure', 'fragmenstein_placed'}

>  <distance_score>  (26) 
0.943951

>  <ref_mols>  (26) 
A0486a,A0541a

>  <smiles>  (26) 
C[C@H](CNCc1ccon1)CNC(=O)Cc1n[nH]c2ccccc12

>  <HIPPO Pose ID>  (26) 
19748

>  <inchikey>  (26) 
FQWFLXFNFAHVSP-UHFFFAOYSA-N

>  <ref_pdb>  (26) 
A0528b

>  <alias>  (26) 
None

>  <energy_score>  (26) 
-37.396448

>  <HIPPO Compound ID>  (26) 
106576

$$$$
None
     RDKit          3D

 25 27  0  0  0  0  0  0  0  0999 V2000
   11.5896   15.5605    0.3209 C   0  0  0  0  0  0  0  0  0  0  0  0
   11.8321   15.6045    1.8321 C   0  0  2  0  0  0  0  0  0  0  0  0
   10.6421   16.3124    2.5708 C   0  0  0  0  0  0  0  0  0  0  0  0
    9.4470   15.4499    2.6322 N   0  0  0  0  0  0  0  0  0  0  0  0
    8.4907   15.7787    3.7296 C   0  0  0  0  0  0  0  0  0  0  0  0
    7.7407   14.5389    4.1549 C   0  0  0  0  0  0  0  0  0  0  0  0
    7.3073   13.4519    3.3545 C   0  0  0  0  0  0  0  0  0  0  0  0
    6.8167   12.5401    4.2498 C   0  0  0  0  0  0  0  0  0  0  0  0
    6.8939   13.0519    5.5006 O   0  0  0  0  0  0  0  0  0  0  0  0
    7.4417   14.3223    5.4477 N   0  0  0  0  0  0  0  0  0  0  0  0
   13.1941   16.2677    2.1548 C   0  0  0  0  0  0  0  0  0  0  0  0
   14.3414   15.3783    1.9880 N   0  0  0  0  0  0  0  0  0  0  0  0
   15.3285   14.7809    3.0501 C   0  0  0  0  0  0  0  0  0  0  0  0
   15.3185   14.8529    4.2206 O   0  0  0  0  0  0  0  0  0  0  0  0
   16.4154   13.9564    2.3099 C   0  0  0  0  0  0  0  0  0  0  0  0
   17.8149   14.5097    2.4294 C   0  0  0  0  0  0  0  0  0  0  0  0
   18.8714   13.6969    2.6376 N   0  0  0  0  0  0  0  0  0  0  0  0
   19.9472   14.5212    2.5590 N   0  0  0  0  0  0  0  0  0  0  0  0
   21.2833   14.0018    2.7609 C   0  0  0  0  0  0  0  0  0  0  0  0
   19.6269   15.8217    2.2644 C   0  0  0  0  0  0  0  0  0  0  0  0
   20.4198   16.9584    2.0474 C   0  0  0  0  0  0  0  0  0  0  0  0
   19.7660   18.1576    1.7639 C   0  0  0  0  0  0  0  0  0  0  0  0
   18.3771   18.2168    1.7027 C   0  0  0  0  0  0  0  0  0  0  0  0
   17.5999   17.0733    1.9180 C   0  0  0  0  0  0  0  0  0  0  0  0
   18.2364   15.8519    2.2040 C   0  0  0  0  0  0  0  0  0  0  0  0
  2  1  1  6
  2  3  1  0
  3  4  1  0
  4  5  1  0
  5  6  1  0
  6  7  1  0
  7  8  2  0
  8  9  1  0
  9 10  1  0
  2 11  1  0
 11 12  1  0
 12 13  1  0
 13 14  2  0
 13 15  1  0
 15 16  1  0
 16 17  2  0
 17 18  1  0
 18 19  1  0
 18 20  1  0
 20 21  2  0
 21 22  1  0
 22 23  2  0
 23 24  1  0
 24 25  2  0
 10  6  2  0
 25 16  1  0
 25 20  1  0
M  END
>  <tags>  (27) 
{'openbind_a71ev2a_c1_knitwork_pure', 'fragmenstein_placed'}

>  <distance_score>  (27) 
0.967361

>  <ref_mols>  (27) 
A0486a,A0541a

>  <smiles>  (27) 
C[C@H](CNCc1ccon1)CNC(=O)Cc1nn(C)c2ccccc12

>  <HIPPO Pose ID>  (27) 
19749

>  <inchikey>  (27) 
ACFDSVWQCUCXCX-UHFFFAOYSA-N

>  <ref_pdb>  (27) 
A0528b

>  <alias>  (27) 
None

>  <energy_score>  (27) 
-29.12269

>  <HIPPO Compound ID>  (27) 
48061

$$$$
None
     RDKit          3D

 23 24  0  0  0  0  0  0  0  0999 V2000
   -0.0869   12.1260    1.5759 C   0  0  0  0  0  0  0  0  0  0  0  0
    0.4169   10.6909    1.6699 C   0  0  1  0  0  0  0  0  0  0  0  0
    1.9247   10.5602    1.4115 C   0  0  0  0  0  0  0  0  0  0  0  0
    2.7890   11.3136    2.4166 C   0  0  0  0  0  0  0  0  0  0  0  0
    4.1906   11.0605    2.2207 N   0  0  0  0  0  0  0  0  0  0  0  0
    5.4322   11.6503    2.9440 C   0  0  0  0  0  0  0  0  0  0  0  0
    5.5084   12.4865    3.7541 O   0  0  0  0  0  0  0  0  0  0  0  0
    6.6302   10.9175    2.3273 C   0  0  0  0  0  0  0  0  0  0  0  0
    7.9833   11.3279    2.9019 C   0  0  0  0  0  0  0  0  0  0  0  0
    8.4050   12.6937    2.4734 C   0  0  0  0  0  0  0  0  0  0  0  0
    8.1455   13.9312    3.0222 C   0  0  0  0  0  0  0  0  0  0  0  0
    8.8546   14.8384    2.2222 C   0  0  0  0  0  0  0  0  0  0  0  0
    9.5440   14.2289    1.2547 N   0  0  0  0  0  0  0  0  0  0  0  0
    9.2155   12.9319    1.3980 N   0  0  0  0  0  0  0  0  0  0  0  0
    0.0709   10.1055    2.9464 N   0  0  0  0  0  0  0  0  0  0  0  0
   -0.1042    8.6147    3.3602 C   0  0  0  0  0  0  0  0  0  0  0  0
    0.0798    7.6337    2.7520 O   0  0  0  0  0  0  0  0  0  0  0  0
   -0.5380    8.6168    4.8406 C   0  0  2  0  0  0  0  0  0  0  0  0
    0.5999    9.0826    5.7448 C   0  0  0  0  0  0  0  0  0  0  0  0
    0.6681    8.0861    6.7805 N   0  0  0  0  0  0  0  0  0  0  0  0
   -0.0585    6.9704    6.4170 C   0  0  0  0  0  0  0  0  0  0  0  0
    0.0296    5.8690    6.9343 O   0  0  0  0  0  0  0  0  0  0  0  0
   -0.8526    7.2944    5.3397 N   0  0  0  0  0  0  0  0  0  0  0  0
  2  1  1  1
  2  3  1  0
  3  4  1  0
  4  5  1  0
  5  6  1  0
  6  7  2  0
  6  8  1  0
  8  9  1  0
  9 10  1  0
 10 11  2  0
 11 12  1  0
 12 13  2  0
 13 14  1  0
  2 15  1  0
 15 16  1  0
 16 17  2  0
 18 16  1  6
 18 19  1  0
 19 20  1  0
 20 21  1  0
 21 22  2  0
 21 23  1  0
 14 10  1  0
 23 18  1  0
M  END
>  <tags>  (28) 
{'openbind_a71ev2a_c1_knitwork_pure', 'fragmenstein_placed'}

>  <distance_score>  (28) 
0.696167

>  <ref_mols>  (28) 
A1081b,A0717a

>  <smiles>  (28) 
C[C@@H](CCNC(=O)CCc1ccn[nH]1)NC(=O)[C@@H]1CNC(=O)N1

>  <HIPPO Pose ID>  (28) 
23693

>  <inchikey>  (28) 
AKYURMVRRSEXJK-UHFFFAOYSA-N

>  <ref_pdb>  (28) 
A4586a

>  <alias>  (28) 
None

>  <energy_score>  (28) 
-5.698781

>  <HIPPO Compound ID>  (28) 
51476

$$$$
None
     RDKit          3D

 22 23  0  0  0  0  0  0  0  0999 V2000
    2.6505   12.1730    1.9604 C   0  0  0  0  0  0  0  0  0  0  0  0
    3.5223   10.9780    1.5923 C   0  0  2  0  0  0  0  0  0  0  0  0
    2.7931    9.6237    1.6467 C   0  0  0  0  0  0  0  0  0  0  0  0
    1.8571    9.4295    2.7341 N   0  0  0  0  0  0  0  0  0  0  0  0
    0.9981    8.1877    3.1191 C   0  0  0  0  0  0  0  0  0  0  0  0
    0.8599    7.1640    2.5720 O   0  0  0  0  0  0  0  0  0  0  0  0
    0.1716    8.5424    4.4053 C   0  0  2  0  0  0  0  0  0  0  0  0
    1.0618    9.0387    5.5414 C   0  0  0  0  0  0  0  0  0  0  0  0
    0.8668    8.1172    6.6246 N   0  0  0  0  0  0  0  0  0  0  0  0
    0.0219    7.0895    6.2547 C   0  0  0  0  0  0  0  0  0  0  0  0
   -0.1251    6.0601    6.8956 O   0  0  0  0  0  0  0  0  0  0  0  0
   -0.5523    7.4314    5.0379 N   0  0  0  0  0  0  0  0  0  0  0  0
   -1.4226    6.5396    4.3078 C   0  0  0  0  0  0  0  0  0  0  0  0
    4.7593   10.9920    2.3504 N   0  0  0  0  0  0  0  0  0  0  0  0
    6.2369   10.8984    1.8734 C   0  0  0  0  0  0  0  0  0  0  0  0
    6.6785   10.7185    0.8048 O   0  0  0  0  0  0  0  0  0  0  0  0
    7.1557   11.2016    3.0688 C   0  0  0  0  0  0  0  0  0  0  0  0
    7.8076   12.5317    2.8549 C   0  0  0  0  0  0  0  0  0  0  0  0
    7.7681   13.6990    3.5848 C   0  0  0  0  0  0  0  0  0  0  0  0
    8.5533   14.6082    2.8551 C   0  0  0  0  0  0  0  0  0  0  0  0
    9.0968   14.0566    1.7685 N   0  0  0  0  0  0  0  0  0  0  0  0
    8.6087   12.7993    1.7718 N   0  0  0  0  0  0  0  0  0  0  0  0
  2  1  1  1
  2  3  1  0
  3  4  1  0
  4  5  1  0
  5  6  2  0
  7  5  1  6
  7  8  1  0
  8  9  1  0
  9 10  1  0
 10 11  2  0
 10 12  1  0
 12 13  1  0
  2 14  1  0
 14 15  1  0
 15 16  2  0
 15 17  1  0
 17 18  1  0
 18 19  2  0
 19 20  1  0
 20 21  2  0
 21 22  1  0
 12  7  1  0
 22 18  1  0
M  END
>  <tags>  (29) 
{'openbind_a71ev2a_c1_knitwork_pure', 'fragmenstein_placed'}

>  <distance_score>  (29) 
0.726363

>  <ref_mols>  (29) 
A1081b,A0717a

>  <smiles>  (29) 
C[C@H](CNC(=O)[C@@H]1CNC(=O)N1C)NC(=O)Cc1ccn[nH]1

>  <HIPPO Pose ID>  (29) 
23697

>  <inchikey>  (29) 
RJDKANFIVPITIR-UHFFFAOYSA-N

>  <ref_pdb>  (29) 
A4586a

>  <alias>  (29) 
None

>  <energy_score>  (29) 
-4.113927

>  <HIPPO Compound ID>  (29) 
53713

$$$$
None
     RDKit          3D

 22 24  0  0  0  0  0  0  0  0999 V2000
    2.9149   10.9592    1.6716 C   0  0  0  0  0  0  0  0  0  0  0  0
    3.7095   10.3115    2.8110 C   0  0  1  0  0  0  0  0  0  0  0  0
    3.3387    8.8331    3.0166 C   0  0  0  0  0  0  0  0  0  0  0  0
    2.0669    8.6922    3.7122 N   0  0  0  0  0  0  0  0  0  0  0  0
    0.6111    8.7626    3.1760 C   0  0  0  0  0  0  0  0  0  0  0  0
    0.2087    9.0206    2.1092 O   0  0  0  0  0  0  0  0  0  0  0  0
   -0.3741    8.5112    4.3487 C   0  0  2  0  0  0  0  0  0  0  0  0
   -0.0556    9.3317    5.5998 C   0  0  0  0  0  0  0  0  0  0  0  0
    0.3700    8.3363    6.5569 N   0  0  0  0  0  0  0  0  0  0  0  0
    0.0376    7.0645    6.1406 C   0  0  0  0  0  0  0  0  0  0  0  0
    0.1218    6.0437    6.8012 O   0  0  0  0  0  0  0  0  0  0  0  0
   -0.3727    7.1466    4.8301 N   0  0  0  0  0  0  0  0  0  0  0  0
    5.1344   10.5347    2.5975 N   0  0  0  0  0  0  0  0  0  0  0  0
    5.8416   11.6147    3.0472 C   0  0  0  0  0  0  0  0  0  0  0  0
    6.9865   11.5962    2.2922 C   0  0  0  0  0  0  0  0  0  0  0  0
    8.0093   12.7395    2.2424 C   0  0  0  0  0  0  0  0  0  0  0  0
    7.9799   13.9253    2.9367 C   0  0  0  0  0  0  0  0  0  0  0  0
    9.0453   14.6694    2.4030 C   0  0  0  0  0  0  0  0  0  0  0  0
    9.7505   13.9819    1.5000 N   0  0  0  0  0  0  0  0  0  0  0  0
    9.0930   12.8018    1.4192 N   0  0  0  0  0  0  0  0  0  0  0  0
    6.9955   10.4833    1.5000 N   0  0  0  0  0  0  0  0  0  0  0  0
    5.8441    9.8388    1.6858 N   0  0  0  0  0  0  0  0  0  0  0  0
  2  1  1  6
  2  3  1  0
  3  4  1  0
  4  5  1  0
  5  6  2  0
  7  5  1  6
  7  8  1  0
  8  9  1  0
  9 10  1  0
 10 11  2  0
 10 12  1  0
  2 13  1  0
 13 14  1  0
 14 15  2  0
 15 16  1  0
 16 17  2  0
 17 18  1  0
 18 19  2  0
 19 20  1  0
 15 21  1  0
 21 22  2  0
 12  7  1  0
 22 13  1  0
 20 16  1  0
M  END
>  <tags>  (30) 
{'openbind_a71ev2a_c1_knitwork_pure', 'fragmenstein_placed'}

>  <distance_score>  (30) 
0.803698

>  <ref_mols>  (30) 
A1081b,A0717a

>  <smiles>  (30) 
C[C@@H](CNC(=O)[C@@H]1CNC(=O)N1)n1cc(-c2ccn[nH]2)nn1

>  <HIPPO Pose ID>  (30) 
23703

>  <inchikey>  (30) 
IHLYYSVXTFTBPP-UHFFFAOYSA-N

>  <ref_pdb>  (30) 
A4586a

>  <alias>  (30) 
None

>  <energy_score>  (30) 
-24.302095

>  <HIPPO Compound ID>  (30) 
66331

$$$$
None
     RDKit          3D

 24 26  0  0  0  0  0  0  0  0999 V2000
    2.3432    6.4631    0.5435 O   0  0  0  0  0  0  0  0  0  0  0  0
    2.3771    7.0410    1.5235 C   0  0  0  0  0  0  0  0  0  0  0  0
    1.2259    7.4924    2.4609 N   0  0  0  0  0  0  0  0  0  0  0  0
   -0.1980    7.2213    2.3976 C   0  0  0  0  0  0  0  0  0  0  0  0
   -0.8267    6.8048    3.7380 C   0  0  0  0  0  0  0  0  0  0  0  0
   -0.4169    7.6540    4.8420 N   0  0  0  0  0  0  0  0  0  0  0  0
   -0.5620    9.0919    4.8338 C   0  0  0  0  0  0  0  0  0  0  0  0
    0.3877    9.4961    5.9438 C   0  0  0  0  0  0  0  0  0  0  0  0
    0.4077    8.3441    6.8087 N   0  0  0  0  0  0  0  0  0  0  0  0
    0.0206    7.2162    6.0907 C   0  0  0  0  0  0  0  0  0  0  0  0
    0.1223    6.0713    6.5009 O   0  0  0  0  0  0  0  0  0  0  0  0
    3.5857    7.6412    2.2927 N   0  0  0  0  0  0  0  0  0  0  0  0
    4.9997    7.5493    2.0270 C   0  0  0  0  0  0  0  0  0  0  0  0
    5.7440    8.8556    2.1446 C   0  0  0  0  0  0  0  0  0  0  0  0
    7.0419    8.8841    2.6844 C   0  0  0  0  0  0  0  0  0  0  0  0
    7.7779   10.0766    2.7450 C   0  0  0  0  0  0  0  0  0  0  0  0
    7.2300   11.2629    2.2560 C   0  0  0  0  0  0  0  0  0  0  0  0
    7.9601   12.5194    2.3114 C   0  0  0  0  0  0  0  0  0  0  0  0
    7.7020   13.6844    3.0032 C   0  0  0  0  0  0  0  0  0  0  0  0
    8.6950   14.5873    2.5880 C   0  0  0  0  0  0  0  0  0  0  0  0
    9.5507   14.0414    1.7199 N   0  0  0  0  0  0  0  0  0  0  0  0
    9.0654   12.7922    1.5486 N   0  0  0  0  0  0  0  0  0  0  0  0
    5.9388   11.2402    1.7119 C   0  0  0  0  0  0  0  0  0  0  0  0
    5.2080   10.0487    1.6461 C   0  0  0  0  0  0  0  0  0  0  0  0
  1  2  2  0
  2  3  1  0
  3  4  1  0
  4  5  1  0
  5  6  1  0
  6  7  1  0
  7  8  1  0
  8  9  1  0
  9 10  1  0
 10 11  2  0
  2 12  1  0
 12 13  1  0
 13 14  1  0
 14 15  2  0
 15 16  1  0
 16 17  2  0
 17 18  1  0
 18 19  2  0
 19 20  1  0
 20 21  2  0
 21 22  1  0
 17 23  1  0
 23 24  2  0
 10  6  1  0
 24 14  1  0
 22 18  1  0
M  END
>  <tags>  (31) 
{'openbind_a71ev2a_c1_knitwork_pure', 'fragmenstein_placed'}

>  <distance_score>  (31) 
0.727947

>  <ref_mols>  (31) 
A1081b,A0717a

>  <smiles>  (31) 
O=C(NCCN1CCNC1=O)NCc1ccc(-c2ccn[nH]2)cc1

>  <HIPPO Pose ID>  (31) 
23706

>  <inchikey>  (31) 
OMOCVUPRTIPABZ-UHFFFAOYSA-N

>  <ref_pdb>  (31) 
A4586a

>  <alias>  (31) 
None

>  <energy_score>  (31) 
-0.279743

>  <HIPPO Compound ID>  (31) 
4093

$$$$
None
     RDKit          3D

 24 25  0  0  0  0  0  0  0  0999 V2000
    0.5346   14.3191    2.7456 C   0  0  0  0  0  0  0  0  0  0  0  0
    1.4538   13.1217    2.9973 C   0  0  2  0  0  0  0  0  0  0  0  0
    2.8531   13.5729    3.4567 C   0  0  0  0  0  0  0  0  0  0  0  0
    3.6841   14.3520    2.4440 C   0  0  0  0  0  0  0  0  0  0  0  0
    5.0157   14.5588    2.9613 N   0  0  0  0  0  0  0  0  0  0  0  0
    5.9740   15.7721    2.8217 C   0  0  0  0  0  0  0  0  0  0  0  0
    5.8030   16.8189    2.3329 O   0  0  0  0  0  0  0  0  0  0  0  0
    7.2834   15.3962    3.5281 C   0  0  0  0  0  0  0  0  0  0  0  0
    7.9754   14.2987    2.7993 C   0  0  0  0  0  0  0  0  0  0  0  0
    8.0813   12.9502    3.0636 C   0  0  0  0  0  0  0  0  0  0  0  0
    8.8087   12.4288    1.9800 C   0  0  0  0  0  0  0  0  0  0  0  0
    9.1846   13.3774    1.1204 N   0  0  0  0  0  0  0  0  0  0  0  0
    8.6465   14.5005    1.6222 N   0  0  0  0  0  0  0  0  0  0  0  0
    1.5173   12.1967    1.7642 C   0  0  0  0  0  0  0  0  0  0  0  0
    0.3440   11.2165    1.6905 C   0  0  0  0  0  0  0  0  0  0  0  0
    0.4948   10.1352    2.6349 N   0  0  0  0  0  0  0  0  0  0  0  0
   -0.5796    9.2945    3.3911 C   0  0  0  0  0  0  0  0  0  0  0  0
   -1.7453    9.3010    3.3035 O   0  0  0  0  0  0  0  0  0  0  0  0
    0.1990    8.3281    4.3094 C   0  0  1  0  0  0  0  0  0  0  0  0
    0.9273    9.0586    5.4310 C   0  0  0  0  0  0  0  0  0  0  0  0
    0.8613    8.1389    6.5374 N   0  0  0  0  0  0  0  0  0  0  0  0
    0.0172    7.0832    6.2525 C   0  0  0  0  0  0  0  0  0  0  0  0
   -0.1089    6.0721    6.9233 O   0  0  0  0  0  0  0  0  0  0  0  0
   -0.5694    7.3275    5.0237 N   0  0  0  0  0  0  0  0  0  0  0  0
  2  1  1  6
  2  3  1  0
  3  4  1  0
  4  5  1  0
  5  6  1  0
  6  7  2  0
  6  8  1  0
  8  9  1  0
  9 10  2  0
 10 11  1  0
 11 12  2  0
 12 13  1  0
  2 14  1  0
 14 15  1  0
 15 16  1  0
 16 17  1  0
 17 18  2  0
 19 17  1  1
 19 20  1  0
 20 21  1  0
 21 22  1  0
 22 23  2  0
 22 24  1  0
 13  9  1  0
 24 19  1  0
M  END
>  <tags>  (32) 
{'openbind_a71ev2a_c1_knitwork_pure', 'fragmenstein_placed'}

>  <distance_score>  (32) 
0.978584

>  <ref_mols>  (32) 
A1081b,A0717a

>  <smiles>  (32) 
C[C@H](CCNC(=O)Cc1ccn[nH]1)CCNC(=O)[C@H]1CNC(=O)N1

>  <HIPPO Pose ID>  (32) 
23709

>  <inchikey>  (32) 
LAWDOCROZLLCBL-UHFFFAOYSA-N

>  <ref_pdb>  (32) 
A4586a

>  <alias>  (32) 
None

>  <energy_score>  (32) 
-8.861399

>  <HIPPO Compound ID>  (32) 
13618

$$$$
None
     RDKit          3D

 23 24  0  0  0  0  0  0  0  0999 V2000
    1.5379   12.8995    2.8630 C   0  0  0  0  0  0  0  0  0  0  0  0
    2.2181   11.5271    2.8427 C   0  0  1  0  0  0  0  0  0  0  0  0
    3.6746   11.5955    3.3647 C   0  0  0  0  0  0  0  0  0  0  0  0
    4.4573   12.7543    2.9596 N   0  0  0  0  0  0  0  0  0  0  0  0
    4.7578   14.0850    3.7125 C   0  0  0  0  0  0  0  0  0  0  0  0
    4.4860   14.4182    4.8012 O   0  0  0  0  0  0  0  0  0  0  0  0
    5.5381   15.0144    2.7707 C   0  0  0  0  0  0  0  0  0  0  0  0
    7.0046   15.2031    3.1989 C   0  0  0  0  0  0  0  0  0  0  0  0
    7.8603   14.1206    2.6422 C   0  0  0  0  0  0  0  0  0  0  0  0
    7.9502   12.7836    2.9603 C   0  0  0  0  0  0  0  0  0  0  0  0
    8.8452   12.2511    2.0178 C   0  0  0  0  0  0  0  0  0  0  0  0
    9.3395   13.1865    1.2028 N   0  0  0  0  0  0  0  0  0  0  0  0
    8.7323   14.3132    1.6047 N   0  0  0  0  0  0  0  0  0  0  0  0
    1.3973   10.5702    3.5967 N   0  0  0  0  0  0  0  0  0  0  0  0
   -0.1020   10.1808    3.4394 C   0  0  0  0  0  0  0  0  0  0  0  0
   -0.8900   10.5061    2.6363 O   0  0  0  0  0  0  0  0  0  0  0  0
   -0.5700    9.2950    4.6379 C   0  0  2  0  0  0  0  0  0  0  0  0
   -0.1523    9.7871    6.0191 C   0  0  0  0  0  0  0  0  0  0  0  0
    0.2091    8.5890    6.7284 N   0  0  0  0  0  0  0  0  0  0  0  0
    0.0488    7.4579    5.9536 C   0  0  0  0  0  0  0  0  0  0  0  0
    0.1322    6.3166    6.3822 O   0  0  0  0  0  0  0  0  0  0  0  0
   -0.2325    7.8767    4.6507 N   0  0  0  0  0  0  0  0  0  0  0  0
   -0.7762    6.9858    3.6545 C   0  0  0  0  0  0  0  0  0  0  0  0
  2  1  1  1
  2  3  1  0
  3  4  1  0
  4  5  1  0
  5  6  2  0
  5  7  1  0
  7  8  1  0
  8  9  1  0
  9 10  2  0
 10 11  1  0
 11 12  2  0
 12 13  1  0
  2 14  1  0
 14 15  1  0
 15 16  2  0
 17 15  1  6
 17 18  1  0
 18 19  1  0
 19 20  1  0
 20 21  2  0
 20 22  1  0
 22 23  1  0
 13  9  1  0
 22 17  1  0
M  END
>  <tags>  (33) 
{'openbind_a71ev2a_c1_knitwork_pure', 'fragmenstein_placed'}

>  <distance_score>  (33) 
0.994018

>  <ref_mols>  (33) 
A1081b,A0717a

>  <smiles>  (33) 
C[C@@H](CNC(=O)CCc1ccn[nH]1)NC(=O)[C@@H]1CNC(=O)N1C

>  <HIPPO Pose ID>  (33) 
23722

>  <inchikey>  (33) 
VPSJRYBKMAUUSC-UHFFFAOYSA-N

>  <ref_pdb>  (33) 
A4586a

>  <alias>  (33) 
None

>  <energy_score>  (33) 
-5.950481

>  <HIPPO Compound ID>  (33) 
51896

$$$$
None
     RDKit          3D

 23 24  0  0  0  0  0  0  0  0999 V2000
    3.8257   10.9171   -0.4158 C   0  0  0  0  0  0  0  0  0  0  0  0
    2.8472   10.3131    0.5779 C   0  0  0  0  0  0  0  0  0  0  0  0
    3.3426   10.2722    2.0364 C   0  0  2  0  0  0  0  0  0  0  0  0
    4.5927    9.3867    2.2290 C   0  0  0  0  0  0  0  0  0  0  0  0
    5.8504   10.0536    1.9396 N   0  0  0  0  0  0  0  0  0  0  0  0
    7.2989    9.7147    2.3897 C   0  0  0  0  0  0  0  0  0  0  0  0
    7.6910    8.8941    3.1233 O   0  0  0  0  0  0  0  0  0  0  0  0
    8.2498   10.6168    1.5928 C   0  0  0  0  0  0  0  0  0  0  0  0
    8.2954   12.0366    2.0529 C   0  0  0  0  0  0  0  0  0  0  0  0
    7.7656   12.7133    3.1314 C   0  0  0  0  0  0  0  0  0  0  0  0
    8.2316   14.0351    2.9982 C   0  0  0  0  0  0  0  0  0  0  0  0
    9.0135   14.1933    1.9273 N   0  0  0  0  0  0  0  0  0  0  0  0
    9.0318   12.9705    1.3693 N   0  0  0  0  0  0  0  0  0  0  0  0
    2.2290    9.8408    2.8766 N   0  0  0  0  0  0  0  0  0  0  0  0
    1.6035    8.4277    3.0802 C   0  0  0  0  0  0  0  0  0  0  0  0
    1.8364    7.4120    2.5477 O   0  0  0  0  0  0  0  0  0  0  0  0
    0.4429    8.5612    4.1075 C   0  0  2  0  0  0  0  0  0  0  0  0
    0.8391    9.2257    5.4171 C   0  0  0  0  0  0  0  0  0  0  0  0
    0.1046    8.4879    6.4198 N   0  0  0  0  0  0  0  0  0  0  0  0
    0.2548    8.7804    7.8233 C   0  0  0  0  0  0  0  0  0  0  0  0
   -0.1353    7.2042    5.9354 C   0  0  0  0  0  0  0  0  0  0  0  0
   -0.3150    6.1884    6.5873 O   0  0  0  0  0  0  0  0  0  0  0  0
   -0.0719    7.2740    4.5505 N   0  0  0  0  0  0  0  0  0  0  0  0
  1  2  1  0
  3  2  1  6
  3  4  1  0
  4  5  1  0
  5  6  1  0
  6  7  2  0
  6  8  1  0
  8  9  1  0
  9 10  2  0
 10 11  1  0
 11 12  2  0
 12 13  1  0
  3 14  1  0
 14 15  1  0
 15 16  2  0
 17 15  1  6
 17 18  1  0
 18 19  1  0
 19 20  1  0
 19 21  1  0
 21 22  2  0
 21 23  1  0
 13  9  1  0
 23 17  1  0
M  END
>  <tags>  (34) 
{'openbind_a71ev2a_c1_knitwork_pure', 'fragmenstein_placed'}

>  <distance_score>  (34) 
0.938625

>  <ref_mols>  (34) 
A1081b,A0717a

>  <smiles>  (34) 
CC[C@H](CNC(=O)Cc1ccn[nH]1)NC(=O)[C@@H]1CN(C)C(=O)N1

>  <HIPPO Pose ID>  (34) 
23724

>  <inchikey>  (34) 
UMSVOSGNJDZBKA-UHFFFAOYSA-N

>  <ref_pdb>  (34) 
A4586a

>  <alias>  (34) 
None

>  <energy_score>  (34) 
-12.235175

>  <HIPPO Compound ID>  (34) 
53762

$$$$
None
     RDKit          3D

 22 23  0  0  0  0  0  0  0  0999 V2000
    1.9469   10.8550    0.9136 C   0  0  0  0  0  0  0  0  0  0  0  0
    2.5538   10.2210    2.1590 C   0  0  1  0  0  0  0  0  0  0  0  0
    3.5489   11.1653    2.8666 C   0  0  0  0  0  0  0  0  0  0  0  0
    4.9216   10.8349    2.5827 N   0  0  0  0  0  0  0  0  0  0  0  0
    5.8036   11.1722    1.3561 C   0  0  0  0  0  0  0  0  0  0  0  0
    5.5783   11.8341    0.4222 O   0  0  0  0  0  0  0  0  0  0  0  0
    7.1425   10.4592    1.5334 C   0  0  0  0  0  0  0  0  0  0  0  0
    8.0328   11.0481    2.6218 C   0  0  0  0  0  0  0  0  0  0  0  0
    8.3280   12.4968    2.4393 C   0  0  0  0  0  0  0  0  0  0  0  0
    7.9077   13.6019    3.1475 C   0  0  0  0  0  0  0  0  0  0  0  0
    8.5714   14.6867    2.5510 C   0  0  0  0  0  0  0  0  0  0  0  0
    9.3766   14.3052    1.5572 N   0  0  0  0  0  0  0  0  0  0  0  0
    9.1604   12.9796    1.4643 N   0  0  0  0  0  0  0  0  0  0  0  0
    1.5036    9.8088    3.0749 N   0  0  0  0  0  0  0  0  0  0  0  0
    0.9328    8.3945    3.3870 C   0  0  0  0  0  0  0  0  0  0  0  0
    1.1678    7.3587    2.8990 O   0  0  0  0  0  0  0  0  0  0  0  0
   -0.0302    8.5449    4.5935 C   0  0  2  0  0  0  0  0  0  0  0  0
    0.7306    9.0698    5.8070 C   0  0  0  0  0  0  0  0  0  0  0  0
    0.5770    8.0643    6.8195 N   0  0  0  0  0  0  0  0  0  0  0  0
   -0.0371    6.9485    6.2931 C   0  0  0  0  0  0  0  0  0  0  0  0
   -0.0410    5.8471    6.8183 O   0  0  0  0  0  0  0  0  0  0  0  0
   -0.5558    7.2705    5.0549 N   0  0  0  0  0  0  0  0  0  0  0  0
  2  1  1  6
  2  3  1  0
  3  4  1  0
  4  5  1  0
  5  6  2  0
  5  7  1  0
  7  8  1  0
  8  9  1  0
  9 10  2  0
 10 11  1  0
 11 12  2  0
 12 13  1  0
  2 14  1  0
 14 15  1  0
 15 16  2  0
 17 15  1  6
 17 18  1  0
 18 19  1  0
 19 20  1  0
 20 21  2  0
 20 22  1  0
 13  9  1  0
 22 17  1  0
M  END
>  <tags>  (35) 
{'openbind_a71ev2a_c1_knitwork_pure', 'fragmenstein_placed'}

>  <distance_score>  (35) 
0.490583

>  <ref_mols>  (35) 
A1081b,A0717a

>  <smiles>  (35) 
C[C@@H](CNC(=O)CCc1ccn[nH]1)NC(=O)[C@@H]1CNC(=O)N1

>  <HIPPO Pose ID>  (35) 
23728

>  <inchikey>  (35) 
DIUMSFGKZNZUAS-UHFFFAOYSA-N

>  <ref_pdb>  (35) 
A4586a

>  <alias>  (35) 
None

>  <energy_score>  (35) 
-11.781268

>  <HIPPO Compound ID>  (35) 
77791

$$$$
None
     RDKit          3D

 23 25  0  0  0  0  0  0  0  0999 V2000
    5.5693   13.9526    4.8060 O   0  0  0  0  0  0  0  0  0  0  0  0
    5.9901   13.0476    4.1947 C   0  0  0  0  0  0  0  0  0  0  0  0
    7.4796   12.7212    4.1457 C   0  0  0  0  0  0  0  0  0  0  0  0
    8.1312   13.2460    2.9218 C   0  0  0  0  0  0  0  0  0  0  0  0
    8.7425   12.4959    1.8934 C   0  0  0  0  0  0  0  0  0  0  0  0
    9.2933   13.2688    0.9572 N   0  0  0  0  0  0  0  0  0  0  0  0
    9.0028   14.5156    1.3564 N   0  0  0  0  0  0  0  0  0  0  0  0
    8.3305   14.5575    2.5423 C   0  0  0  0  0  0  0  0  0  0  0  0
    5.2475   11.9311    3.4079 N   0  0  0  0  0  0  0  0  0  0  0  0
    3.8309   11.7533    3.1317 C   0  0  2  0  0  0  0  0  0  0  0  0
    3.4713   10.2441    3.0085 C   0  0  0  0  0  0  0  0  0  0  0  0
    2.4079    9.8082    3.8914 N   0  0  0  0  0  0  0  0  0  0  0  0
    0.9118   10.1937    3.9274 C   0  0  0  0  0  0  0  0  0  0  0  0
    0.2854   10.8632    3.2043 O   0  0  0  0  0  0  0  0  0  0  0  0
    0.2479    9.4986    5.1489 C   0  0  1  0  0  0  0  0  0  0  0  0
   -1.0657    8.8665    4.6705 C   0  0  0  0  0  0  0  0  0  0  0  0
   -1.1269    7.6101    5.3655 N   0  0  0  0  0  0  0  0  0  0  0  0
    0.0291    7.3537    6.0616 C   0  0  0  0  0  0  0  0  0  0  0  0
    0.2192    6.3676    6.7550 O   0  0  0  0  0  0  0  0  0  0  0  0
    0.9129    8.4026    5.8449 N   0  0  0  0  0  0  0  0  0  0  0  0
    3.3975   12.5020    1.8912 C   0  0  0  0  0  0  0  0  0  0  0  0
    3.9611   13.8439    1.4848 C   0  0  0  0  0  0  0  0  0  0  0  0
    4.2716   12.6213    0.6635 C   0  0  0  0  0  0  0  0  0  0  0  0
  1  2  2  0
  2  3  1  0
  3  4  1  0
  4  5  1  0
  5  6  2  0
  6  7  1  0
  7  8  1  0
  2  9  1  0
  9 10  1  0
 10 11  1  6
 11 12  1  0
 12 13  1  0
 13 14  2  0
 15 13  1  6
 15 16  1  0
 16 17  1  0
 17 18  1  0
 18 19  2  0
 18 20  1  0
 10 21  1  0
 21 22  1  0
 22 23  1  0
  8  4  2  0
 20 15  1  0
 23 21  1  0
M  END
>  <tags>  (36) 
{'openbind_a71ev2a_c1_knitwork_pure', 'fragmenstein_placed'}

>  <distance_score>  (36) 
0.687262

>  <ref_mols>  (36) 
A1081b,A0717a

>  <smiles>  (36) 
O=C(Cc1cn[nH]c1)N[C@H](CNC(=O)[C@H]1CNC(=O)N1)C1CC1

>  <HIPPO Pose ID>  (36) 
23741

>  <inchikey>  (36) 
CEMUYZQUYWHICQ-UHFFFAOYSA-N

>  <ref_pdb>  (36) 
A4586a

>  <alias>  (36) 
None

>  <energy_score>  (36) 
-15.240381

>  <HIPPO Compound ID>  (36) 
45975

$$$$
None
     RDKit          3D

 12 12  0  0  0  0  0  0  0  0999 V2000
    9.1051   15.7019   20.9775 C   0  0  0  0  0  0  0  0  0  0  0  0
   10.1250   14.7092   20.8271 O   0  0  0  0  0  0  0  0  0  0  0  0
   11.3462   15.2348   21.1565 C   0  0  0  0  0  0  0  0  0  0  0  0
   11.9348   16.2107   20.3630 C   0  0  0  0  0  0  0  0  0  0  0  0
   13.1072   16.7822   20.8144 C   0  0  0  0  0  0  0  0  0  0  0  0
   13.6832   16.4694   21.9927 N   0  0  0  0  0  0  0  0  0  0  0  0
   13.1261   15.4530   22.6882 C   0  0  0  0  0  0  0  0  0  0  0  0
   11.9834   14.7594   22.3019 C   0  0  0  0  0  0  0  0  0  0  0  0
   11.4841   13.5079   22.9829 C   0  0  1  0  0  0  0  0  0  0  0  0
   12.4792   12.9317   23.9707 C   0  0  0  0  0  0  0  0  0  0  0  0
   10.1398   13.6542   23.6662 C   0  0  0  0  0  0  0  0  0  0  0  0
    9.6178   12.7595   24.3358 O   0  0  0  0  0  0  0  0  0  0  0  0
  1  2  1  0
  2  3  1  0
  3  4  2  0
  4  5  1  0
  5  6  2  0
  6  7  1  0
  7  8  2  0
  8  9  1  0
  9 10  1  1
  9 11  1  0
 11 12  2  0
  8  3  1  0
M  END
>  <tags>  (37) 
{'openbind_a71ev2a_c1_knitwork_pure', 'fragmenstein_placed'}

>  <distance_score>  (37) 
0.97266

>  <ref_mols>  (37) 
A3564a,A4874a

>  <smiles>  (37) 
COc1ccncc1[C@@H](C)C=O

>  <HIPPO Pose ID>  (37) 
26724

>  <inchikey>  (37) 
COFDIZZNQGQPRY-UHFFFAOYSA-N

>  <ref_pdb>  (37) 
A1180a

>  <alias>  (37) 
None

>  <energy_score>  (37) 
-5.583182

>  <HIPPO Compound ID>  (37) 
51448

$$$$
None
     RDKit          3D

 11 11  0  0  0  0  0  0  0  0999 V2000
   11.9938   14.9090   18.4360 C   0  0  0  0  0  0  0  0  0  0  0  0
   12.1277   16.1664   19.2868 C   0  0  2  0  0  0  0  0  0  0  0  0
   13.2939   17.0197   18.8128 C   0  0  0  0  0  0  0  0  0  0  0  0
   13.6727   18.0382   19.3932 O   0  0  0  0  0  0  0  0  0  0  0  0
   12.1900   15.7743   20.7443 C   0  0  0  0  0  0  0  0  0  0  0  0
   13.3807   15.7586   21.4627 C   0  0  0  0  0  0  0  0  0  0  0  0
   13.5077   15.2568   22.7105 N   0  0  0  0  0  0  0  0  0  0  0  0
   12.3880   14.7612   23.2738 C   0  0  0  0  0  0  0  0  0  0  0  0
   11.1374   14.8095   22.6860 C   0  0  0  0  0  0  0  0  0  0  0  0
    9.7433   14.2494   23.5122 Cl  0  0  0  0  0  0  0  0  0  0  0  0
   11.0389   15.3187   21.4002 C   0  0  0  0  0  0  0  0  0  0  0  0
  2  1  1  6
  2  3  1  0
  3  4  2  0
  2  5  1  0
  5  6  2  0
  6  7  1  0
  7  8  2  0
  8  9  1  0
  9 10  1  0
  9 11  2  0
 11  5  1  0
M  END
>  <tags>  (38) 
{'openbind_a71ev2a_c1_knitwork_pure', 'fragmenstein_placed'}

>  <distance_score>  (38) 
0.832887

>  <ref_mols>  (38) 
A3564a,A4874a

>  <smiles>  (38) 
C[C@H](C=O)c1cncc(Cl)c1

>  <HIPPO Pose ID>  (38) 
26728

>  <inchikey>  (38) 
AKSNBUPFDFKHMM-UHFFFAOYSA-N

>  <ref_pdb>  (38) 
A1180a

>  <alias>  (38) 
None

>  <energy_score>  (38) 
-4.838062

>  <HIPPO Compound ID>  (38) 
57322

$$$$
None
     RDKit          3D

 16 18  0  0  0  0  0  0  0  0999 V2000
   10.2841    8.4654   23.0149 Br  0  0  0  0  0  0  0  0  0  0  0  0
   10.1154   10.1529   23.7743 C   0  0  0  0  0  0  0  0  0  0  0  0
   11.1602   11.0530   23.6167 C   0  0  0  0  0  0  0  0  0  0  0  0
   11.0861   12.2827   24.2386 C   0  0  0  0  0  0  0  0  0  0  0  0
    9.9129   12.6282   24.8745 C   0  0  0  0  0  0  0  0  0  0  0  0
    8.8797   11.7136   25.0718 C   0  0  0  0  0  0  0  0  0  0  0  0
    8.9870   10.4552   24.5292 C   0  0  0  0  0  0  0  0  0  0  0  0
    7.8967   12.2080   25.9327 N   0  0  0  0  0  0  0  0  0  0  0  0
    6.5231   11.7463   25.8380 C   0  0  0  0  0  0  0  0  0  0  0  0
    5.6281   12.1358   26.9683 C   0  0  0  0  0  0  0  0  0  0  0  0
    4.6790   13.1827   26.9948 C   0  0  0  0  0  0  0  0  0  0  0  0
    4.0247   13.2505   28.1563 N   0  0  0  0  0  0  0  0  0  0  0  0
    4.5621   12.2609   28.8857 N   0  0  0  0  0  0  0  0  0  0  0  0
    5.5181   11.5562   28.2166 C   0  0  0  0  0  0  0  0  0  0  0  0
    8.1087   13.6606   25.9033 C   0  0  0  0  0  0  0  0  0  0  0  0
    9.5589   13.9348   25.4858 C   0  0  0  0  0  0  0  0  0  0  0  0
  1  2  1  0
  2  3  2  0
  3  4  1  0
  4  5  2  0
  5  6  1  0
  6  7  2  0
  6  8  1  0
  8  9  1  0
  9 10  1  0
 10 11  1  0
 11 12  2  0
 12 13  1  0
 13 14  1  0
  8 15  1  0
 15 16  1  0
  7  2  1  0
 14 10  2  0
 16  5  1  0
M  END
>  <tags>  (39) 
{'openbind_a71ev2a_c1_knitwork_pure', 'fragmenstein_placed'}

>  <distance_score>  (39) 
0.973727

>  <ref_mols>  (39) 
A2304a,A1778a

>  <smiles>  (39) 
Brc1ccc2c(c1)N(Cc1cn[nH]c1)CC2

>  <HIPPO Pose ID>  (39) 
26805

>  <inchikey>  (39) 
AOQUYKRGVSCMIY-UHFFFAOYSA-N

>  <ref_pdb>  (39) 
A1180a

>  <alias>  (39) 
None

>  <energy_score>  (39) 
-20.027971

>  <HIPPO Compound ID>  (39) 
61947

$$$$
None
     RDKit          3D

 18 20  0  0  0  0  0  0  0  0999 V2000
   10.3443    8.5394   23.2047 C   0  0  0  0  0  0  0  0  0  0  0  0
   10.0916    9.9731   23.5344 C   0  0  0  0  0  0  0  0  0  0  0  0
   10.7847   10.9681   22.8347 C   0  0  0  0  0  0  0  0  0  0  0  0
   10.4747   12.3090   23.0283 C   0  0  0  0  0  0  0  0  0  0  0  0
    9.5638   12.6407   24.0123 C   0  0  0  0  0  0  0  0  0  0  0  0
    8.8883   11.6615   24.7319 C   0  0  0  0  0  0  0  0  0  0  0  0
    9.1140   10.3277   24.4738 C   0  0  0  0  0  0  0  0  0  0  0  0
    8.1391   12.2512   25.7926 N   0  0  0  0  0  0  0  0  0  0  0  0
    6.5544   11.7941   26.1405 S   0  0  0  0  0  0  0  0  0  0  0  0
    5.6352   12.7547   25.5822 O   0  0  0  0  0  0  0  0  0  0  0  0
    6.3972   10.3697   25.9543 O   0  0  0  0  0  0  0  0  0  0  0  0
    6.2922   12.0024   27.8271 C   0  0  0  0  0  0  0  0  0  0  0  0
    6.6049   13.1480   28.5699 C   0  0  0  0  0  0  0  0  0  0  0  0
    6.3111   13.0057   29.8653 N   0  0  0  0  0  0  0  0  0  0  0  0
    5.7614   11.7769   29.9348 N   0  0  0  0  0  0  0  0  0  0  0  0
    5.7400   11.1256   28.7355 C   0  0  0  0  0  0  0  0  0  0  0  0
    8.3976   13.7138   25.7264 C   0  0  0  0  0  0  0  0  0  0  0  0
    9.0795   13.9964   24.3872 C   0  0  0  0  0  0  0  0  0  0  0  0
  1  2  1  0
  2  3  2  0
  3  4  1  0
  4  5  2  0
  5  6  1  0
  6  7  2  0
  6  8  1  0
  8  9  1  0
  9 10  2  0
  9 11  2  0
  9 12  1  0
 12 13  1  0
 13 14  2  0
 14 15  1  0
 15 16  1  0
  8 17  1  0
 17 18  1  0
  7  2  1  0
 16 12  2  0
 18  5  1  0
M  END
>  <tags>  (40) 
{'openbind_a71ev2a_c1_knitwork_pure', 'fragmenstein_placed'}

>  <distance_score>  (40) 
0.90543

>  <ref_mols>  (40) 
A2304a,A1778a

>  <smiles>  (40) 
Cc1ccc2c(c1)N(S(=O)(=O)c1cn[nH]c1)CC2

>  <HIPPO Pose ID>  (40) 
26816

>  <inchikey>  (40) 
ZPJZDVARGNTQTH-UHFFFAOYSA-N

>  <ref_pdb>  (40) 
A1180a

>  <alias>  (40) 
None

>  <energy_score>  (40) 
-33.023983

>  <HIPPO Compound ID>  (40) 
3735

$$$$
None
     RDKit          3D

 18 20  0  0  0  0  0  0  0  0999 V2000
    5.5310   12.7086   25.7220 O   0  0  0  0  0  0  0  0  0  0  0  0
    6.4660   11.7209   26.2026 S   0  0  0  0  0  0  0  0  0  0  0  0
    6.3489   10.3160   25.8938 O   0  0  0  0  0  0  0  0  0  0  0  0
    6.1983   11.7715   27.8988 C   0  0  0  0  0  0  0  0  0  0  0  0
    5.6562   10.7299   28.6666 C   0  0  0  0  0  0  0  0  0  0  0  0
    5.6027   11.0458   29.9643 N   0  0  0  0  0  0  0  0  0  0  0  0
    6.0628   12.3075   30.0108 N   0  0  0  0  0  0  0  0  0  0  0  0
    6.4549   12.7882   28.7937 C   0  0  0  0  0  0  0  0  0  0  0  0
    8.0417   12.2373   25.8982 N   0  0  0  0  0  0  0  0  0  0  0  0
    8.2581   13.7061   25.8986 C   0  0  0  0  0  0  0  0  0  0  0  0
    8.9594   14.0561   24.5807 C   0  0  0  0  0  0  0  0  0  0  0  0
    9.4614   12.7265   24.1390 C   0  0  0  0  0  0  0  0  0  0  0  0
   10.3663   12.4578   23.1292 C   0  0  0  0  0  0  0  0  0  0  0  0
   10.7174   11.1349   22.8900 C   0  0  0  0  0  0  0  0  0  0  0  0
   10.0525   10.1122   23.5656 C   0  0  0  0  0  0  0  0  0  0  0  0
   10.4040    8.4933   23.1612 Cl  0  0  0  0  0  0  0  0  0  0  0  0
    9.0789   10.3872   24.5230 C   0  0  0  0  0  0  0  0  0  0  0  0
    8.8154   11.7039   24.8247 C   0  0  0  0  0  0  0  0  0  0  0  0
  1  2  2  0
  2  3  2  0
  2  4  1  0
  4  5  1  0
  5  6  2  0
  6  7  1  0
  7  8  1  0
  2  9  1  0
  9 10  1  0
 10 11  1  0
 11 12  1  0
 12 13  2  0
 13 14  1  0
 14 15  2  0
 15 16  1  0
 15 17  1  0
 17 18  2  0
  8  4  2  0
 18  9  1  0
 18 12  1  0
M  END
>  <tags>  (41) 
{'openbind_a71ev2a_c1_knitwork_pure', 'fragmenstein_placed'}

>  <distance_score>  (41) 
0.938064

>  <ref_mols>  (41) 
A2304a,A1778a

>  <smiles>  (41) 
O=S(=O)(c1cn[nH]c1)N1CCc2ccc(Cl)cc21

>  <HIPPO Pose ID>  (41) 
26819

>  <inchikey>  (41) 
PWNWGEJUGNEAPQ-UHFFFAOYSA-N

>  <ref_pdb>  (41) 
A1180a

>  <alias>  (41) 
None

>  <energy_score>  (41) 
-35.601117

>  <HIPPO Compound ID>  (41) 
41201

$$$$
None
     RDKit          3D

 21 24  0  0  0  0  0  0  0  0999 V2000
    8.4692    9.6977   24.2087 C   0  0  0  0  0  0  0  0  0  0  0  0
    7.4253    9.9958   25.0528 C   0  0  0  0  0  0  0  0  0  0  0  0
    7.1567   11.2341   25.4968 N   0  0  0  0  0  0  0  0  0  0  0  0
    7.9863   12.2549   25.1153 C   0  0  0  0  0  0  0  0  0  0  0  0
    7.6524   13.5289   25.6661 N   0  0  0  0  0  0  0  0  0  0  0  0
    6.4230   13.8520   26.2152 C   0  0  0  0  0  0  0  0  0  0  0  0
    6.5398   15.0903   26.7903 C   0  0  0  0  0  0  0  0  0  0  0  0
    7.8814   15.4345   26.5891 C   0  0  0  0  0  0  0  0  0  0  0  0
    8.5667   14.5107   25.9110 N   0  0  0  0  0  0  0  0  0  0  0  0
    9.1010   12.0396   24.3078 C   0  0  0  0  0  0  0  0  0  0  0  0
   10.0045   13.0482   23.7960 C   0  0  0  0  0  0  0  0  0  0  0  0
   11.3220   12.8339   23.6362 N   0  0  0  0  0  0  0  0  0  0  0  0
   11.6424   13.6368   22.5367 O   0  0  0  0  0  0  0  0  0  0  0  0
   10.5061   14.3252   22.2277 C   0  0  0  0  0  0  0  0  0  0  0  0
   10.2789   15.1865   20.9781 C   0  0  0  0  0  0  0  0  0  0  0  0
   10.9905   15.1501   19.8094 C   0  0  0  0  0  0  0  0  0  0  0  0
   10.4023   16.0397   18.9504 O   0  0  0  0  0  0  0  0  0  0  0  0
    9.4274   16.6199   19.7070 C   0  0  0  0  0  0  0  0  0  0  0  0
    9.2356   16.0646   20.8723 N   0  0  0  0  0  0  0  0  0  0  0  0
    9.5226   14.0881   23.0727 N   0  0  0  0  0  0  0  0  0  0  0  0
    9.2988   10.7328   23.8225 C   0  0  0  0  0  0  0  0  0  0  0  0
  1  2  2  0
  2  3  1  0
  3  4  2  0
  4  5  1  0
  5  6  1  0
  6  7  2  0
  7  8  1  0
  8  9  2  0
  4 10  1  0
 10 11  1  0
 11 12  2  0
 12 13  1  0
 13 14  1  0
 14 15  1  0
 15 16  2  0
 16 17  1  0
 17 18  1  0
 18 19  2  0
 14 20  2  0
 10 21  2  0
 21  1  1  0
  9  5  1  0
 20 11  1  0
 19 15  1  0
M  END
>  <tags>  (42) 
{'openbind_a71ev2a_c1_knitwork_pure', 'fragmenstein_placed'}

>  <distance_score>  (42) 
0.960692

>  <ref_mols>  (42) 
A0556a,A3435a

>  <smiles>  (42) 
c1cnc(-n2cccn2)c(-c2noc(-c3cocn3)n2)c1

>  <HIPPO Pose ID>  (42) 
26820

>  <inchikey>  (42) 
LAHXOKLNMJHBTG-UHFFFAOYSA-N

>  <ref_pdb>  (42) 
A1180a

>  <alias>  (42) 
None

>  <energy_score>  (42) 
-43.284605

>  <HIPPO Compound ID>  (42) 
47635

$$$$
None
     RDKit          3D

 21 23  0  0  0  0  0  0  0  0999 V2000
    9.6402   14.1666   25.2857 O   0  0  0  0  0  0  0  0  0  0  0  0
    9.7480   13.4599   24.3665 C   0  0  0  0  0  0  0  0  0  0  0  0
   10.7183   13.5122   23.1814 N   0  0  0  0  0  0  0  0  0  0  0  0
   11.8261   14.3892   22.9195 C   0  0  0  0  0  0  0  0  0  0  0  0
   12.1693   14.5467   21.4561 C   0  0  0  0  0  0  0  0  0  0  0  0
   11.0974   15.1264   20.6333 C   0  0  0  0  0  0  0  0  0  0  0  0
   10.8257   15.0575   19.2940 C   0  0  0  0  0  0  0  0  0  0  0  0
    9.7763   15.8788   18.9795 N   0  0  0  0  0  0  0  0  0  0  0  0
    9.4635   16.4229   20.1399 C   0  0  0  0  0  0  0  0  0  0  0  0
   10.2091   15.9917   21.1930 O   0  0  0  0  0  0  0  0  0  0  0  0
    8.8697   12.2437   24.3584 C   0  0  0  0  0  0  0  0  0  0  0  0
    9.2650   11.0335   23.7887 C   0  0  0  0  0  0  0  0  0  0  0  0
    8.5600    9.9000   24.1353 C   0  0  0  0  0  0  0  0  0  0  0  0
    7.5152    9.9077   24.9888 N   0  0  0  0  0  0  0  0  0  0  0  0
    7.0978   11.0999   25.4927 C   0  0  0  0  0  0  0  0  0  0  0  0
    6.0408   11.0973   26.4591 N   0  0  0  0  0  0  0  0  0  0  0  0
    5.2834   12.1530   26.9259 C   0  0  0  0  0  0  0  0  0  0  0  0
    4.4503   11.6528   27.9041 C   0  0  0  0  0  0  0  0  0  0  0  0
    4.7889   10.3013   28.0024 C   0  0  0  0  0  0  0  0  0  0  0  0
    5.7167    9.9586   27.1158 N   0  0  0  0  0  0  0  0  0  0  0  0
    7.7289   12.2891   25.1713 C   0  0  0  0  0  0  0  0  0  0  0  0
  1  2  2  0
  2  3  1  0
  3  4  1  0
  4  5  1  0
  5  6  1  0
  6  7  2  0
  7  8  1  0
  8  9  2  0
  9 10  1  0
  2 11  1  0
 11 12  2  0
 12 13  1  0
 13 14  2  0
 14 15  1  0
 15 16  1  0
 16 17  1  0
 17 18  2  0
 18 19  1  0
 19 20  2  0
 15 21  2  0
 10  6  1  0
 21 11  1  0
 20 16  1  0
M  END
>  <tags>  (43) 
{'openbind_a71ev2a_c1_knitwork_pure', 'fragmenstein_placed'}

>  <distance_score>  (43) 
0.793857

>  <ref_mols>  (43) 
A0556a,A3435a

>  <smiles>  (43) 
O=C(NCCc1cnco1)c1ccnc(-n2cccn2)c1

>  <HIPPO Pose ID>  (43) 
26830

>  <inchikey>  (43) 
LLUOFVPUDREFGO-UHFFFAOYSA-N

>  <ref_pdb>  (43) 
A1180a

>  <alias>  (43) 
None

>  <energy_score>  (43) 
-4.409124

>  <HIPPO Compound ID>  (43) 
45979

$$$$
None
     RDKit          3D

 21 24  0  0  0  0  0  0  0  0999 V2000
    8.6894    9.5973   24.0112 C   0  0  0  0  0  0  0  0  0  0  0  0
    7.6917    9.7899   24.9327 C   0  0  0  0  0  0  0  0  0  0  0  0
    7.3465   10.9863   25.4285 N   0  0  0  0  0  0  0  0  0  0  0  0
    7.9538   12.1048   24.9368 C   0  0  0  0  0  0  0  0  0  0  0  0
    7.3742   13.3362   25.4021 N   0  0  0  0  0  0  0  0  0  0  0  0
    7.4050   14.6093   24.8783 C   0  0  0  0  0  0  0  0  0  0  0  0
    6.6380   15.4166   25.6851 C   0  0  0  0  0  0  0  0  0  0  0  0
    6.1731   14.5657   26.6885 C   0  0  0  0  0  0  0  0  0  0  0  0
    6.6189   13.3201   26.5442 N   0  0  0  0  0  0  0  0  0  0  0  0
    9.0234   12.0002   24.0442 C   0  0  0  0  0  0  0  0  0  0  0  0
    9.8013   13.0705   23.4815 C   0  0  0  0  0  0  0  0  0  0  0  0
    9.3966   13.9545   22.6217 N   0  0  0  0  0  0  0  0  0  0  0  0
   10.5712   14.3919   22.0703 C   0  0  0  0  0  0  0  0  0  0  0  0
   10.4344   15.2453   20.9142 C   0  0  0  0  0  0  0  0  0  0  0  0
   10.9301   15.0949   19.6470 C   0  0  0  0  0  0  0  0  0  0  0  0
   10.3065   16.0215   18.8542 O   0  0  0  0  0  0  0  0  0  0  0  0
    9.5139   16.7157   19.7229 C   0  0  0  0  0  0  0  0  0  0  0  0
    9.5140   16.2615   20.9461 N   0  0  0  0  0  0  0  0  0  0  0  0
   11.6819   13.8948   22.6262 N   0  0  0  0  0  0  0  0  0  0  0  0
   11.1647   12.9901   23.5735 O   0  0  0  0  0  0  0  0  0  0  0  0
    9.3645   10.7165   23.5757 C   0  0  0  0  0  0  0  0  0  0  0  0
  1  2  2  0
  2  3  1  0
  3  4  2  0
  4  5  1  0
  5  6  1  0
  6  7  2  0
  7  8  1  0
  8  9  2  0
  4 10  1  0
 10 11  1  0
 11 12  2  0
 12 13  1  0
 13 14  1  0
 14 15  2  0
 15 16  1  0
 16 17  1  0
 17 18  2  0
 13 19  2  0
 19 20  1  0
 10 21  2  0
 21  1  1  0
  9  5  1  0
 20 11  1  0
 18 14  1  0
M  END
>  <tags>  (44) 
{'openbind_a71ev2a_c1_knitwork_pure', 'fragmenstein_placed'}

>  <distance_score>  (44) 
0.979194

>  <ref_mols>  (44) 
A0556a,A3435a

>  <smiles>  (44) 
c1cnc(-n2cccn2)c(-c2nc(-c3cocn3)no2)c1

>  <HIPPO Pose ID>  (44) 
26831

>  <inchikey>  (44) 
HLUHSVZNKBAJRE-UHFFFAOYSA-N

>  <ref_pdb>  (44) 
A1180a

>  <alias>  (44) 
None

>  <energy_score>  (44) 
-23.951021

>  <HIPPO Compound ID>  (44) 
53411

$$$$
None
     RDKit          3D

 23 25  0  0  0  0  0  0  0  0999 V2000
   10.2862   13.6770   25.1388 O   0  0  0  0  0  0  0  0  0  0  0  0
   10.1504   13.0487   24.1681 C   0  0  0  0  0  0  0  0  0  0  0  0
   10.9959   13.0015   22.8862 N   0  0  0  0  0  0  0  0  0  0  0  0
   12.2412   13.6466   22.5630 C   0  0  0  0  0  0  0  0  0  0  0  0
   12.3961   14.0506   21.0783 C   0  0  0  0  0  0  0  0  0  0  0  0
   11.2172   14.7044   20.6112 N   0  0  0  0  0  0  0  0  0  0  0  0
   10.9403   14.8422   19.2063 C   0  0  0  0  0  0  0  0  0  0  0  0
    9.7268   15.7406   19.0007 C   0  0  0  0  0  0  0  0  0  0  0  0
    8.8268   15.5580   20.0784 O   0  0  0  0  0  0  0  0  0  0  0  0
    9.4006   16.1537   21.2235 C   0  0  0  0  0  0  0  0  0  0  0  0
   10.8636   15.7778   21.3847 C   0  0  0  0  0  0  0  0  0  0  0  0
   11.7080   16.2620   22.1207 O   0  0  0  0  0  0  0  0  0  0  0  0
    9.0402   12.0427   24.1728 C   0  0  0  0  0  0  0  0  0  0  0  0
    9.3252   10.7658   23.6584 C   0  0  0  0  0  0  0  0  0  0  0  0
    8.5683    9.6705   24.0370 C   0  0  0  0  0  0  0  0  0  0  0  0
    7.5583    9.8698   24.9495 C   0  0  0  0  0  0  0  0  0  0  0  0
    7.2398   11.0654   25.4603 N   0  0  0  0  0  0  0  0  0  0  0  0
    7.9448   12.1543   25.0386 C   0  0  0  0  0  0  0  0  0  0  0  0
    7.4437   13.4142   25.4872 N   0  0  0  0  0  0  0  0  0  0  0  0
    7.4846   14.6246   24.8277 C   0  0  0  0  0  0  0  0  0  0  0  0
    6.7193   15.5063   25.5511 C   0  0  0  0  0  0  0  0  0  0  0  0
    6.2691   14.7662   26.6508 C   0  0  0  0  0  0  0  0  0  0  0  0
    6.7054   13.5078   26.6336 N   0  0  0  0  0  0  0  0  0  0  0  0
  1  2  2  0
  2  3  1  0
  3  4  1  0
  4  5  1  0
  5  6  1  0
  6  7  1  0
  7  8  1  0
  8  9  1  0
  9 10  1  0
 10 11  1  0
 11 12  2  0
  2 13  1  0
 13 14  2  0
 14 15  1  0
 15 16  2  0
 16 17  1  0
 17 18  2  0
 18 19  1  0
 19 20  1  0
 20 21  2  0
 21 22  1  0
 22 23  2  0
 11  6  1  0
 18 13  1  0
 23 19  1  0
M  END
>  <tags>  (45) 
{'openbind_a71ev2a_c1_knitwork_pure', 'fragmenstein_placed'}

>  <distance_score>  (45) 
0.530988

>  <ref_mols>  (45) 
A0556a,A3435a

>  <smiles>  (45) 
O=C(NCCN1CCOCC1=O)c1cccnc1-n1cccn1

>  <HIPPO Pose ID>  (45) 
26870

>  <inchikey>  (45) 
MZDGATSJXWUBEN-UHFFFAOYSA-N

>  <ref_pdb>  (45) 
A1180a

>  <alias>  (45) 
None

>  <energy_score>  (45) 
-12.472304

>  <HIPPO Compound ID>  (45) 
65382

$$$$
None
     RDKit          3D

 16 17  0  0  0  0  0  0  0  0999 V2000
   11.9574   14.6880   21.1155 C   0  0  0  0  0  0  0  0  0  0  0  0
   11.8042   14.4326   22.5938 C   0  0  0  0  0  0  0  0  0  0  0  0
   10.7329   13.5300   22.9155 N   0  0  0  0  0  0  0  0  0  0  0  0
    9.8227   13.4607   24.1529 C   0  0  0  0  0  0  0  0  0  0  0  0
    9.7444   14.1707   25.0741 O   0  0  0  0  0  0  0  0  0  0  0  0
    8.9557   12.2395   24.2047 C   0  0  0  0  0  0  0  0  0  0  0  0
    9.3476   11.0202   23.6583 C   0  0  0  0  0  0  0  0  0  0  0  0
    8.6540    9.8912   24.0431 C   0  0  0  0  0  0  0  0  0  0  0  0
    7.6181    9.9127   24.9082 N   0  0  0  0  0  0  0  0  0  0  0  0
    7.2037   11.1124   25.3960 C   0  0  0  0  0  0  0  0  0  0  0  0
    6.1476   11.1214   26.3651 N   0  0  0  0  0  0  0  0  0  0  0  0
    5.4088   12.1850   26.8443 C   0  0  0  0  0  0  0  0  0  0  0  0
    4.5678   11.6892   27.8185 C   0  0  0  0  0  0  0  0  0  0  0  0
    4.8805   10.3308   27.8999 C   0  0  0  0  0  0  0  0  0  0  0  0
    5.7975    9.9808   27.0051 N   0  0  0  0  0  0  0  0  0  0  0  0
    7.8314   12.2956   25.0439 C   0  0  0  0  0  0  0  0  0  0  0  0
  1  2  1  0
  2  3  1  0
  3  4  1  0
  4  5  2  0
  4  6  1  0
  6  7  2  0
  7  8  1  0
  8  9  2  0
  9 10  1  0
 10 11  1  0
 11 12  1  0
 12 13  2  0
 13 14  1  0
 14 15  2  0
 10 16  2  0
 16  6  1  0
 15 11  1  0
M  END
>  <tags>  (46) 
{'openbind_a71ev2a_c1_knitwork_pure', 'fragmenstein_placed'}

>  <distance_score>  (46) 
0.832468

>  <ref_mols>  (46) 
A0556a,A3435a

>  <smiles>  (46) 
CCNC(=O)c1ccnc(-n2cccn2)c1

>  <HIPPO Pose ID>  (46) 
26874

>  <inchikey>  (46) 
AZNSWSRGOHBTSU-UHFFFAOYSA-N

>  <ref_pdb>  (46) 
A1180a

>  <alias>  (46) 
None

>  <energy_score>  (46) 
-12.139653

>  <HIPPO Compound ID>  (46) 
52108

$$$$
None
     RDKit          3D

 16 17  0  0  0  0  0  0  0  0999 V2000
   11.9367   14.6136   20.9997 C   0  0  0  0  0  0  0  0  0  0  0  0
   11.7376   14.4620   22.4851 C   0  0  0  0  0  0  0  0  0  0  0  0
   10.7322   13.5019   22.8515 N   0  0  0  0  0  0  0  0  0  0  0  0
   10.0076   13.2760   24.1872 C   0  0  0  0  0  0  0  0  0  0  0  0
   10.1635   13.7802   25.2251 O   0  0  0  0  0  0  0  0  0  0  0  0
    9.0121   12.1558   24.1534 C   0  0  0  0  0  0  0  0  0  0  0  0
    9.4202   10.9386   23.5965 C   0  0  0  0  0  0  0  0  0  0  0  0
    8.7449    9.7850   23.9502 C   0  0  0  0  0  0  0  0  0  0  0  0
    7.6979    9.7685   24.7991 N   0  0  0  0  0  0  0  0  0  0  0  0
    7.2792   10.9584   25.2868 C   0  0  0  0  0  0  0  0  0  0  0  0
    7.8739   12.1738   24.9742 C   0  0  0  0  0  0  0  0  0  0  0  0
    7.2719   13.3483   25.4814 N   0  0  0  0  0  0  0  0  0  0  0  0
    7.3226   14.6254   24.9681 C   0  0  0  0  0  0  0  0  0  0  0  0
    6.5147   15.4126   25.7524 C   0  0  0  0  0  0  0  0  0  0  0  0
    5.9980   14.5352   26.7135 C   0  0  0  0  0  0  0  0  0  0  0  0
    6.4397   13.2861   26.5580 N   0  0  0  0  0  0  0  0  0  0  0  0
  1  2  1  0
  2  3  1  0
  3  4  1  0
  4  5  2  0
  4  6  1  0
  6  7  2  0
  7  8  1  0
  8  9  2  0
  9 10  1  0
 10 11  2  0
 11 12  1  0
 12 13  1  0
 13 14  2  0
 14 15  1  0
 15 16  2  0
 11  6  1  0
 16 12  1  0
M  END
>  <tags>  (47) 
{'openbind_a71ev2a_c1_knitwork_pure', 'fragmenstein_placed'}

>  <distance_score>  (47) 
0.40621

>  <ref_mols>  (47) 
A0556a,A3435a

>  <smiles>  (47) 
CCNC(=O)c1ccncc1-n1cccn1

>  <HIPPO Pose ID>  (47) 
26875

>  <inchikey>  (47) 
IHYLMDBZOJESMS-UHFFFAOYSA-N

>  <ref_pdb>  (47) 
A1180a

>  <alias>  (47) 
None

>  <energy_score>  (47) 
-14.819471

>  <HIPPO Compound ID>  (47) 
48415

$$$$
None
     RDKit          3D

 21 23  0  0  0  0  0  0  0  0999 V2000
    9.5024   14.1671   25.1794 O   0  0  0  0  0  0  0  0  0  0  0  0
    9.7668   13.3313   24.4122 C   0  0  0  0  0  0  0  0  0  0  0  0
   10.9282   13.2282   23.4143 N   0  0  0  0  0  0  0  0  0  0  0  0
   11.9572   14.1712   23.0802 C   0  0  0  0  0  0  0  0  0  0  0  0
   12.0955   14.3565   21.5802 C   0  0  0  0  0  0  0  0  0  0  0  0
   10.7701   14.6858   20.9296 C   0  0  2  0  0  0  0  0  0  0  0  0
   10.8785   14.9680   19.4547 C   0  0  0  0  0  0  0  0  0  0  0  0
    9.8439   16.0408   19.2321 C   0  0  0  0  0  0  0  0  0  0  0  0
    9.2595   16.3546   20.5864 C   0  0  0  0  0  0  0  0  0  0  0  0
   10.2235   15.8617   21.5059 O   0  0  0  0  0  0  0  0  0  0  0  0
    8.8794   12.1127   24.4236 C   0  0  0  0  0  0  0  0  0  0  0  0
    9.2246   10.8878   23.8521 C   0  0  0  0  0  0  0  0  0  0  0  0
    8.4792    9.7816   24.1974 C   0  0  0  0  0  0  0  0  0  0  0  0
    7.4358    9.8226   25.0489 N   0  0  0  0  0  0  0  0  0  0  0  0
    7.0573   11.0280   25.5473 C   0  0  0  0  0  0  0  0  0  0  0  0
    5.9986   11.0640   26.5099 N   0  0  0  0  0  0  0  0  0  0  0  0
    5.2590   12.1428   26.9505 C   0  0  0  0  0  0  0  0  0  0  0  0
    4.4103   11.6773   27.9322 C   0  0  0  0  0  0  0  0  0  0  0  0
    4.7260   10.3229   28.0632 C   0  0  0  0  0  0  0  0  0  0  0  0
    5.6551    9.9457   27.1924 N   0  0  0  0  0  0  0  0  0  0  0  0
    7.7295   12.1937   25.2245 C   0  0  0  0  0  0  0  0  0  0  0  0
  1  2  2  0
  2  3  1  0
  3  4  1  0
  4  5  1  0
  6  5  1  1
  6  7  1  0
  7  8  1  0
  8  9  1  0
  9 10  1  0
  2 11  1  0
 11 12  2  0
 12 13  1  0
 13 14  2  0
 14 15  1  0
 15 16  1  0
 16 17  1  0
 17 18  2  0
 18 19  1  0
 19 20  2  0
 15 21  2  0
 10  6  1  0
 21 11  1  0
 20 16  1  0
M  END
>  <tags>  (48) 
{'openbind_a71ev2a_c1_knitwork_pure', 'fragmenstein_placed'}

>  <distance_score>  (48) 
0.837261

>  <ref_mols>  (48) 
A0556a,A3435a

>  <smiles>  (48) 
O=C(NCC[C@@H]1CCCO1)c1ccnc(-n2cccn2)c1

>  <HIPPO Pose ID>  (48) 
26877

>  <inchikey>  (48) 
KGOROLBWDGQCPO-UHFFFAOYSA-N

>  <ref_pdb>  (48) 
A1180a

>  <alias>  (48) 
None

>  <energy_score>  (48) 
-10.006017

>  <HIPPO Compound ID>  (48) 
48493

$$$$
None
     RDKit          3D

 21 23  0  0  0  0  0  0  0  0999 V2000
    9.5829   13.9431   25.5200 O   0  0  0  0  0  0  0  0  0  0  0  0
    9.6264   13.3244   24.5390 C   0  0  0  0  0  0  0  0  0  0  0  0
   10.5732   13.4246   23.3484 N   0  0  0  0  0  0  0  0  0  0  0  0
   11.7229   14.2382   23.1472 C   0  0  0  0  0  0  0  0  0  0  0  0
   12.2299   14.2744   21.7381 C   0  0  0  0  0  0  0  0  0  0  0  0
   11.4925   15.1502   20.7685 C   0  0  1  0  0  0  0  0  0  0  0  0
   10.5765   14.5432   19.7605 C   0  0  0  0  0  0  0  0  0  0  0  0
    9.8862   15.7792   19.2580 C   0  0  0  0  0  0  0  0  0  0  0  0
    9.5866   16.4771   20.5560 C   0  0  0  0  0  0  0  0  0  0  0  0
   10.7047   16.1506   21.3982 O   0  0  0  0  0  0  0  0  0  0  0  0
    8.6801   12.1676   24.4248 C   0  0  0  0  0  0  0  0  0  0  0  0
    9.1710   10.9626   23.8963 C   0  0  0  0  0  0  0  0  0  0  0  0
    8.5140    9.7895   24.2050 C   0  0  0  0  0  0  0  0  0  0  0  0
    7.4300    9.7398   25.0030 N   0  0  0  0  0  0  0  0  0  0  0  0
    6.9409   10.9150   25.4648 C   0  0  0  0  0  0  0  0  0  0  0  0
    7.4917   12.1515   25.1644 C   0  0  0  0  0  0  0  0  0  0  0  0
    6.8030   13.3111   25.5941 N   0  0  0  0  0  0  0  0  0  0  0  0
    6.8289   14.5771   25.0463 C   0  0  0  0  0  0  0  0  0  0  0  0
    5.9589   15.3547   25.7713 C   0  0  0  0  0  0  0  0  0  0  0  0
    5.4187   14.4788   26.7214 C   0  0  0  0  0  0  0  0  0  0  0  0
    5.9057   13.2407   26.6167 N   0  0  0  0  0  0  0  0  0  0  0  0
  1  2  2  0
  2  3  1  0
  3  4  1  0
  4  5  1  0
  6  5  1  1
  6  7  1  0
  7  8  1  0
  8  9  1  0
  9 10  1  0
  2 11  1  0
 11 12  2  0
 12 13  1  0
 13 14  2  0
 14 15  1  0
 15 16  2  0
 16 17  1  0
 17 18  1  0
 18 19  2  0
 19 20  1  0
 20 21  2  0
 10  6  1  0
 16 11  1  0
 21 17  1  0
M  END
>  <tags>  (49) 
{'openbind_a71ev2a_c1_knitwork_pure', 'fragmenstein_placed'}

>  <distance_score>  (49) 
0.605255

>  <ref_mols>  (49) 
A0556a,A3435a

>  <smiles>  (49) 
O=C(NCC[C@H]1CCCO1)c1ccncc1-n1cccn1

>  <HIPPO Pose ID>  (49) 
26878

>  <inchikey>  (49) 
YSKAKYHCRXBUPZ-UHFFFAOYSA-N

>  <ref_pdb>  (49) 
A1180a

>  <alias>  (49) 
None

>  <energy_score>  (49) 
-3.095105

>  <HIPPO Compound ID>  (49) 
51536

$$$$
None
     RDKit          3D

 21 23  0  0  0  0  0  0  0  0999 V2000
    9.6898   14.0049   25.2486 O   0  0  0  0  0  0  0  0  0  0  0  0
    9.8688   13.1982   24.4276 C   0  0  0  0  0  0  0  0  0  0  0  0
   10.9333   13.1203   23.3248 N   0  0  0  0  0  0  0  0  0  0  0  0
   12.0580   13.9655   23.0554 C   0  0  0  0  0  0  0  0  0  0  0  0
   12.1610   14.2874   21.5754 C   0  0  0  0  0  0  0  0  0  0  0  0
   11.0553   15.1969   21.0904 C   0  0  0  0  0  0  0  0  0  0  0  0
   10.8330   15.2220   19.5813 C   0  0  0  0  0  0  0  0  0  0  0  0
    9.5851   16.0419   19.5688 C   0  0  0  0  0  0  0  0  0  0  0  0
    8.9133   15.9076   20.7173 C   0  0  0  0  0  0  0  0  0  0  0  0
    9.6407   14.9752   21.6097 C   0  0  0  0  0  0  0  0  0  0  0  0
    8.9284   12.0223   24.4297 C   0  0  0  0  0  0  0  0  0  0  0  0
    9.2320   10.7901   23.8525 C   0  0  0  0  0  0  0  0  0  0  0  0
    8.4517    9.7105   24.1962 C   0  0  0  0  0  0  0  0  0  0  0  0
    7.4115    9.7839   25.0485 N   0  0  0  0  0  0  0  0  0  0  0  0
    7.0701   10.9996   25.5473 C   0  0  0  0  0  0  0  0  0  0  0  0
    6.0113   11.0639   26.5078 N   0  0  0  0  0  0  0  0  0  0  0  0
    5.2955   12.1608   26.9416 C   0  0  0  0  0  0  0  0  0  0  0  0
    4.4332   11.7181   27.9220 C   0  0  0  0  0  0  0  0  0  0  0  0
    4.7195   10.3581   28.0616 C   0  0  0  0  0  0  0  0  0  0  0  0
    5.6431    9.9564   27.1959 N   0  0  0  0  0  0  0  0  0  0  0  0
    7.7807   12.1437   25.2288 C   0  0  0  0  0  0  0  0  0  0  0  0
  1  2  2  0
  2  3  1  0
  3  4  1  0
  4  5  1  0
  5  6  1  0
  6  7  1  0
  7  8  1  0
  8  9  2  0
  9 10  1  0
  2 11  1  0
 11 12  2  0
 12 13  1  0
 13 14  2  0
 14 15  1  0
 15 16  1  0
 16 17  1  0
 17 18  2  0
 18 19  1  0
 19 20  2  0
 15 21  2  0
 10  6  1  0
 21 11  1  0
 20 16  1  0
M  END
>  <tags>  (50) 
{'openbind_a71ev2a_c1_knitwork_pure', 'fragmenstein_placed'}

>  <distance_score>  (50) 
0.907722

>  <ref_mols>  (50) 
A0556a,A3435a

>  <smiles>  (50) 
O=C(NCCC1CC=CC1)c1ccnc(-n2cccn2)c1

>  <HIPPO Pose ID>  (50) 
26880

>  <inchikey>  (50) 
VJAJBTQOYAJDPL-UHFFFAOYSA-N

>  <ref_pdb>  (50) 
A1180a

>  <alias>  (50) 
None

>  <energy_score>  (50) 
-8.663214

>  <HIPPO Compound ID>  (50) 
65392

$$$$
None
     RDKit          3D

 19 20  0  0  0  0  0  0  0  0999 V2000
    9.7822   14.0211   25.3443 O   0  0  0  0  0  0  0  0  0  0  0  0
    9.8518   13.2898   24.4410 C   0  0  0  0  0  0  0  0  0  0  0  0
   10.8114   13.2753   23.2459 N   0  0  0  0  0  0  0  0  0  0  0  0
   11.9540   14.1026   22.9526 C   0  0  0  0  0  0  0  0  0  0  0  0
   12.1763   14.4113   21.4816 C   0  0  0  0  0  0  0  0  0  0  0  0
   11.0509   15.0168   20.8157 N   0  0  0  0  0  0  0  0  0  0  0  0
   10.8354   15.0411   19.4731 C   0  0  0  0  0  0  0  0  0  0  0  0
    9.6905   15.7763   19.3100 C   0  0  0  0  0  0  0  0  0  0  0  0
    9.3037   16.1726   20.5943 C   0  0  0  0  0  0  0  0  0  0  0  0
   10.1033   15.6471   21.5149 N   0  0  0  0  0  0  0  0  0  0  0  0
    8.8940   12.1322   24.4568 C   0  0  0  0  0  0  0  0  0  0  0  0
    9.1814   10.8924   23.8848 C   0  0  0  0  0  0  0  0  0  0  0  0
    8.3868    9.8131   24.2365 C   0  0  0  0  0  0  0  0  0  0  0  0
    7.3388    9.8822   25.0944 N   0  0  0  0  0  0  0  0  0  0  0  0
    7.0525   11.1166   25.5918 C   0  0  0  0  0  0  0  0  0  0  0  0
    5.9768   11.1900   26.6244 C   0  0  0  0  0  0  0  0  0  0  0  0
    5.6226   12.2142   27.1815 O   0  0  0  0  0  0  0  0  0  0  0  0
    5.4824    9.9717   26.9383 O   0  0  0  0  0  0  0  0  0  0  0  0
    7.7756   12.2545   25.2872 C   0  0  0  0  0  0  0  0  0  0  0  0
  1  2  2  0
  2  3  1  0
  3  4  1  0
  4  5  1  0
  5  6  1  0
  6  7  1  0
  7  8  2  0
  8  9  1  0
  9 10  2  0
  2 11  1  0
 11 12  2  0
 12 13  1  0
 13 14  2  0
 14 15  1  0
 15 16  1  0
 16 17  2  0
 16 18  1  0
 15 19  2  0
 10  6  1  0
 19 11  1  0
M  END
>  <tags>  (51) 
{'openbind_a71ev2a_c1_knitwork_pure', 'fragmenstein_placed'}

>  <distance_score>  (51) 
0.618535

>  <ref_mols>  (51) 
A0556a,A3435a

>  <smiles>  (51) 
O=C(NCCn1cccn1)c1ccnc(C(=O)O)c1

>  <HIPPO Pose ID>  (51) 
26881

>  <inchikey>  (51) 
LUJUPDFZVKGRPH-UHFFFAOYSA-N

>  <ref_pdb>  (51) 
A1180a

>  <alias>  (51) 
None

>  <energy_score>  (51) 
-2.5289

>  <HIPPO Compound ID>  (51) 
47082

$$$$
None
     RDKit          3D

 22 24  0  0  0  0  0  0  0  0999 V2000
   10.1200   13.6743   25.2150 O   0  0  0  0  0  0  0  0  0  0  0  0
   10.0414   13.0521   24.2352 C   0  0  0  0  0  0  0  0  0  0  0  0
   10.9187   13.0629   22.9782 N   0  0  0  0  0  0  0  0  0  0  0  0
   12.1352   13.7727   22.6950 C   0  0  0  0  0  0  0  0  0  0  0  0
   12.2736   14.2328   21.2467 C   0  0  0  0  0  0  0  0  0  0  0  0
   11.0992   14.9778   20.7254 C   0  0  0  0  0  0  0  0  0  0  0  0
   10.7259   14.9828   19.4047 C   0  0  0  0  0  0  0  0  0  0  0  0
    9.6692   15.7991   19.0272 C   0  0  0  0  0  0  0  0  0  0  0  0
    9.1192   16.6925   19.9164 C   0  0  0  0  0  0  0  0  0  0  0  0
    9.3920   16.6183   21.1997 N   0  0  0  0  0  0  0  0  0  0  0  0
   10.3488   15.7549   21.5664 C   0  0  0  0  0  0  0  0  0  0  0  0
    8.9800   11.9895   24.2032 C   0  0  0  0  0  0  0  0  0  0  0  0
    9.3368   10.7249   23.7183 C   0  0  0  0  0  0  0  0  0  0  0  0
    8.5876    9.6319   24.0996 C   0  0  0  0  0  0  0  0  0  0  0  0
    7.5252    9.7084   24.9233 N   0  0  0  0  0  0  0  0  0  0  0  0
    7.1580   10.9397   25.3425 C   0  0  0  0  0  0  0  0  0  0  0  0
    7.8196   12.1055   24.9813 C   0  0  0  0  0  0  0  0  0  0  0  0
    7.2543   13.3318   25.3930 N   0  0  0  0  0  0  0  0  0  0  0  0
    7.3464   14.5607   24.7790 C   0  0  0  0  0  0  0  0  0  0  0  0
    6.5371   15.4226   25.4788 C   0  0  0  0  0  0  0  0  0  0  0  0
    5.9908   14.6401   26.5034 C   0  0  0  0  0  0  0  0  0  0  0  0
    6.4138   13.3757   26.4625 N   0  0  0  0  0  0  0  0  0  0  0  0
  1  2  2  0
  2  3  1  0
  3  4  1  0
  4  5  1  0
  5  6  1  0
  6  7  2  0
  7  8  1  0
  8  9  2  0
  9 10  1  0
 10 11  2  0
  2 12  1  0
 12 13  2  0
 13 14  1  0
 14 15  2  0
 15 16  1  0
 16 17  2  0
 17 18  1  0
 18 19  1  0
 19 20  2  0
 20 21  1  0
 21 22  2  0
 11  6  1  0
 17 12  1  0
 22 18  1  0
M  END
>  <tags>  (52) 
{'openbind_a71ev2a_c1_knitwork_pure', 'fragmenstein_placed'}

>  <distance_score>  (52) 
0.606948

>  <ref_mols>  (52) 
A0556a,A3435a

>  <smiles>  (52) 
O=C(NCCc1cccnc1)c1ccncc1-n1cccn1

>  <HIPPO Pose ID>  (52) 
26889

>  <inchikey>  (52) 
GODMAJBOTXASKT-UHFFFAOYSA-N

>  <ref_pdb>  (52) 
A1180a

>  <alias>  (52) 
None

>  <energy_score>  (52) 
-10.077662

>  <HIPPO Compound ID>  (52) 
31470

$$$$
None
     RDKit          3D

 22 24  0  0  0  0  0  0  0  0999 V2000
    9.8712   13.9432   25.0927 O   0  0  0  0  0  0  0  0  0  0  0  0
    9.9423   13.1662   24.2274 C   0  0  0  0  0  0  0  0  0  0  0  0
   10.9512   13.0486   23.0752 N   0  0  0  0  0  0  0  0  0  0  0  0
   12.1404   13.8031   22.7958 C   0  0  0  0  0  0  0  0  0  0  0  0
   12.2669   14.2342   21.3345 C   0  0  0  0  0  0  0  0  0  0  0  0
   11.0885   14.9577   20.7880 C   0  0  0  0  0  0  0  0  0  0  0  0
   10.7657   14.9859   19.4525 C   0  0  0  0  0  0  0  0  0  0  0  0
    9.7112   15.7949   19.0533 C   0  0  0  0  0  0  0  0  0  0  0  0
    9.1173   16.6627   19.9374 C   0  0  0  0  0  0  0  0  0  0  0  0
    9.3265   16.5496   21.2288 N   0  0  0  0  0  0  0  0  0  0  0  0
   10.2813   15.6921   21.6152 C   0  0  0  0  0  0  0  0  0  0  0  0
    8.9656   12.0260   24.2695 C   0  0  0  0  0  0  0  0  0  0  0  0
    9.2809   10.7712   23.7498 C   0  0  0  0  0  0  0  0  0  0  0  0
    8.5131    9.7008   24.1420 C   0  0  0  0  0  0  0  0  0  0  0  0
    7.4786    9.8034   24.9973 N   0  0  0  0  0  0  0  0  0  0  0  0
    7.1367   11.0355   25.4581 C   0  0  0  0  0  0  0  0  0  0  0  0
    6.0852   11.1158   26.4268 N   0  0  0  0  0  0  0  0  0  0  0  0
    5.3781   12.2190   26.8578 C   0  0  0  0  0  0  0  0  0  0  0  0
    4.5138   11.7856   27.8411 C   0  0  0  0  0  0  0  0  0  0  0  0
    4.7905   10.4243   27.9859 C   0  0  0  0  0  0  0  0  0  0  0  0
    5.7091   10.0122   27.1198 N   0  0  0  0  0  0  0  0  0  0  0  0
    7.8351   12.1743   25.0879 C   0  0  0  0  0  0  0  0  0  0  0  0
  1  2  2  0
  2  3  1  0
  3  4  1  0
  4  5  1  0
  5  6  1  0
  6  7  2  0
  7  8  1  0
  8  9  2  0
  9 10  1  0
 10 11  2  0
  2 12  1  0
 12 13  2  0
 13 14  1  0
 14 15  2  0
 15 16  1  0
 16 17  1  0
 17 18  1  0
 18 19  2  0
 19 20  1  0
 20 21  2  0
 16 22  2  0
 11  6  1  0
 22 12  1  0
 21 17  1  0
M  END
>  <tags>  (53) 
{'openbind_a71ev2a_c1_knitwork_pure', 'fragmenstein_placed'}

>  <distance_score>  (53) 
0.822708

>  <ref_mols>  (53) 
A0556a,A3435a

>  <smiles>  (53) 
O=C(NCCc1cccnc1)c1ccnc(-n2cccn2)c1

>  <HIPPO Pose ID>  (53) 
26890

>  <inchikey>  (53) 
UYOZDXASYOYYCF-UHFFFAOYSA-N

>  <ref_pdb>  (53) 
A1180a

>  <alias>  (53) 
None

>  <energy_score>  (53) 
-6.025926

>  <HIPPO Compound ID>  (53) 
6296

$$$$
None
     RDKit          3D

 21 23  0  0  0  0  0  0  0  0999 V2000
    9.9053   13.8051   25.4771 O   0  0  0  0  0  0  0  0  0  0  0  0
    9.9010   13.2265   24.4687 C   0  0  0  0  0  0  0  0  0  0  0  0
   10.8472   13.3132   23.2734 N   0  0  0  0  0  0  0  0  0  0  0  0
   11.9489   14.1965   23.0182 C   0  0  0  0  0  0  0  0  0  0  0  0
   12.2422   14.4021   21.5503 C   0  0  0  0  0  0  0  0  0  0  0  0
   11.1361   15.0258   20.7970 C   0  0  0  0  0  0  0  0  0  0  0  0
   11.0327   15.0492   19.4259 C   0  0  0  0  0  0  0  0  0  0  0  0
    9.7314   16.0422   18.9918 S   0  0  0  0  0  0  0  0  0  0  0  0
    9.3500   16.3063   20.6256 C   0  0  0  0  0  0  0  0  0  0  0  0
   10.1362   15.6904   21.4722 N   0  0  0  0  0  0  0  0  0  0  0  0
    8.8781   12.1396   24.3076 C   0  0  0  0  0  0  0  0  0  0  0  0
    9.3035   10.8893   23.8478 C   0  0  0  0  0  0  0  0  0  0  0  0
    8.5620    9.7795   24.1973 C   0  0  0  0  0  0  0  0  0  0  0  0
    7.4567    9.8363   24.9716 N   0  0  0  0  0  0  0  0  0  0  0  0
    7.0130   11.0642   25.3275 C   0  0  0  0  0  0  0  0  0  0  0  0
    7.6515   12.2387   24.9717 C   0  0  0  0  0  0  0  0  0  0  0  0
    7.0130   13.4819   25.1689 N   0  0  0  0  0  0  0  0  0  0  0  0
    5.9731   13.7821   26.0245 C   0  0  0  0  0  0  0  0  0  0  0  0
    5.5703   15.0643   25.7335 C   0  0  0  0  0  0  0  0  0  0  0  0
    6.4013   15.4630   24.6780 C   0  0  0  0  0  0  0  0  0  0  0  0
    7.2835   14.5221   24.3428 N   0  0  0  0  0  0  0  0  0  0  0  0
  1  2  2  0
  2  3  1  0
  3  4  1  0
  4  5  1  0
  5  6  1  0
  6  7  2  0
  7  8  1  0
  8  9  1  0
  9 10  2  0
  2 11  1  0
 11 12  2  0
 12 13  1  0
 13 14  2  0
 14 15  1  0
 15 16  2  0
 16 17  1  0
 17 18  1  0
 18 19  2  0
 19 20  1  0
 20 21  2  0
 10  6  1  0
 16 11  1  0
 21 17  1  0
M  END
>  <tags>  (54) 
{'openbind_a71ev2a_c1_knitwork_pure', 'fragmenstein_placed'}

>  <distance_score>  (54) 
0.612892

>  <ref_mols>  (54) 
A0556a,A3435a

>  <smiles>  (54) 
O=C(NCCc1cscn1)c1ccncc1-n1cccn1

>  <HIPPO Pose ID>  (54) 
26891

>  <inchikey>  (54) 
WYHWZNDJHHPUFV-UHFFFAOYSA-N

>  <ref_pdb>  (54) 
A1180a

>  <alias>  (54) 
None

>  <energy_score>  (54) 
-62.556406

>  <HIPPO Compound ID>  (54) 
58912

$$$$
None
     RDKit          3D

 21 23  0  0  0  0  0  0  0  0999 V2000
    9.7611   14.0447   25.2528 O   0  0  0  0  0  0  0  0  0  0  0  0
    9.8796   13.2927   24.3707 C   0  0  0  0  0  0  0  0  0  0  0  0
   10.9190   13.2376   23.2438 N   0  0  0  0  0  0  0  0  0  0  0  0
   11.9785   14.1485   22.9046 C   0  0  0  0  0  0  0  0  0  0  0  0
   12.0947   14.4169   21.4135 C   0  0  0  0  0  0  0  0  0  0  0  0
   10.8619   15.0456   20.8691 C   0  0  0  0  0  0  0  0  0  0  0  0
    9.8495   15.4657   21.5950 N   0  0  0  0  0  0  0  0  0  0  0  0
    9.0638   16.2960   20.8429 C   0  0  0  0  0  0  0  0  0  0  0  0
    9.4482   16.4208   19.5342 C   0  0  0  0  0  0  0  0  0  0  0  0
   10.7058   15.3226   19.1868 S   0  0  0  0  0  0  0  0  0  0  0  0
    8.9387   12.1197   24.3612 C   0  0  0  0  0  0  0  0  0  0  0  0
    9.2757   10.8895   23.7966 C   0  0  0  0  0  0  0  0  0  0  0  0
    8.5215    9.7918   24.1461 C   0  0  0  0  0  0  0  0  0  0  0  0
    7.4785    9.8480   24.9975 N   0  0  0  0  0  0  0  0  0  0  0  0
    7.1120   11.0598   25.4927 C   0  0  0  0  0  0  0  0  0  0  0  0
    6.0545   11.1010   26.4569 N   0  0  0  0  0  0  0  0  0  0  0  0
    5.3304   12.1844   26.9113 C   0  0  0  0  0  0  0  0  0  0  0  0
    4.4773   11.7192   27.8896 C   0  0  0  0  0  0  0  0  0  0  0  0
    4.7742   10.3593   28.0044 C   0  0  0  0  0  0  0  0  0  0  0  0
    5.6937    9.9784   27.1250 N   0  0  0  0  0  0  0  0  0  0  0  0
    7.7949   12.2200   25.1667 C   0  0  0  0  0  0  0  0  0  0  0  0
  1  2  2  0
  2  3  1  0
  3  4  1  0
  4  5  1  0
  5  6  1  0
  6  7  2  0
  7  8  1  0
  8  9  2  0
  9 10  1  0
  2 11  1  0
 11 12  2  0
 12 13  1  0
 13 14  2  0
 14 15  1  0
 15 16  1  0
 16 17  1  0
 17 18  2  0
 18 19  1  0
 19 20  2  0
 15 21  2  0
 10  6  1  0
 21 11  1  0
 20 16  1  0
M  END
>  <tags>  (55) 
{'openbind_a71ev2a_c1_knitwork_pure', 'fragmenstein_placed'}

>  <distance_score>  (55) 
0.845052

>  <ref_mols>  (55) 
A0556a,A3435a

>  <smiles>  (55) 
O=C(NCCc1nccs1)c1ccnc(-n2cccn2)c1

>  <HIPPO Pose ID>  (55) 
26893

>  <inchikey>  (55) 
ARHWMQQRHMNSLN-UHFFFAOYSA-N

>  <ref_pdb>  (55) 
A1180a

>  <alias>  (55) 
None

>  <energy_score>  (55) 
-42.106563

>  <HIPPO Compound ID>  (55) 
49901

$$$$
None
     RDKit          3D

 21 23  0  0  0  0  0  0  0  0999 V2000
    9.6696   14.1266   25.2072 O   0  0  0  0  0  0  0  0  0  0  0  0
    9.8121   13.3870   24.3185 C   0  0  0  0  0  0  0  0  0  0  0  0
   10.8556   13.3728   23.1939 N   0  0  0  0  0  0  0  0  0  0  0  0
   11.8897   14.3174   22.8664 C   0  0  0  0  0  0  0  0  0  0  0  0
   12.1640   14.4380   21.3803 C   0  0  0  0  0  0  0  0  0  0  0  0
   11.0743   15.0373   20.5807 C   0  0  0  0  0  0  0  0  0  0  0  0
   11.0348   15.1412   19.1803 C   0  0  0  0  0  0  0  0  0  0  0  0
    9.9971   15.8611   18.7440 N   0  0  0  0  0  0  0  0  0  0  0  0
    9.4231   16.2905   19.8839 N   0  0  0  0  0  0  0  0  0  0  0  0
    9.9245   15.6676   20.9817 C   0  0  0  0  0  0  0  0  0  0  0  0
    8.9019   12.1900   24.3024 C   0  0  0  0  0  0  0  0  0  0  0  0
    9.2887   10.9664   23.7541 C   0  0  0  0  0  0  0  0  0  0  0  0
    8.5811    9.8419   24.1197 C   0  0  0  0  0  0  0  0  0  0  0  0
    7.5410    9.8693   24.9759 N   0  0  0  0  0  0  0  0  0  0  0  0
    7.1213   11.0717   25.4484 C   0  0  0  0  0  0  0  0  0  0  0  0
    6.0587   11.0771   26.3958 N   0  0  0  0  0  0  0  0  0  0  0  0
    5.2228   12.0958   26.7799 C   0  0  0  0  0  0  0  0  0  0  0  0
    4.3913   11.6775   27.7141 N   0  0  0  0  0  0  0  0  0  0  0  0
    4.7900   10.3968   27.9247 C   0  0  0  0  0  0  0  0  0  0  0  0
    5.7757    9.9833   27.1387 N   0  0  0  0  0  0  0  0  0  0  0  0
    7.7524   12.2560   25.1054 C   0  0  0  0  0  0  0  0  0  0  0  0
  1  2  2  0
  2  3  1  0
  3  4  1  0
  4  5  1  0
  5  6  1  0
  6  7  1  0
  7  8  2  0
  8  9  1  0
  9 10  1  0
  2 11  1  0
 11 12  2  0
 12 13  1  0
 13 14  2  0
 14 15  1  0
 15 16  1  0
 16 17  1  0
 17 18  2  0
 18 19  1  0
 19 20  2  0
 15 21  2  0
 10  6  2  0
 21 11  1  0
 20 16  1  0
M  END
>  <tags>  (56) 
{'openbind_a71ev2a_c1_knitwork_pure', 'fragmenstein_placed'}

>  <distance_score>  (56) 
0.809537

>  <ref_mols>  (56) 
A0556a,A3435a

>  <smiles>  (56) 
O=C(NCCc1cn[nH]c1)c1ccnc(-n2cncn2)c1

>  <HIPPO Pose ID>  (56) 
26906

>  <inchikey>  (56) 
GQSJCPRFXMQJKB-UHFFFAOYSA-N

>  <ref_pdb>  (56) 
A1180a

>  <alias>  (56) 
None

>  <energy_score>  (56) 
-12.783626

>  <HIPPO Compound ID>  (56) 
50940

$$$$
None
     RDKit          3D

 19 20  0  0  0  0  0  0  0  0999 V2000
    4.3329   10.1968   28.4762 C   0  0  0  0  0  0  0  0  0  0  0  0
    5.4575   10.1696   27.4600 C   0  0  0  0  0  0  0  0  0  0  0  0
    5.6769   11.7764   26.6714 S   0  0  0  0  0  0  0  0  0  0  0  0
    7.0477   11.4569   25.5721 C   0  0  0  0  0  0  0  0  0  0  0  0
    7.8385   12.5374   25.2316 C   0  0  0  0  0  0  0  0  0  0  0  0
    8.9686   12.3325   24.4392 C   0  0  0  0  0  0  0  0  0  0  0  0
    9.9714   13.4446   24.4212 C   0  0  0  0  0  0  0  0  0  0  0  0
    9.9779   14.1440   25.3514 O   0  0  0  0  0  0  0  0  0  0  0  0
   10.8957   13.4059   23.2030 N   0  0  0  0  0  0  0  0  0  0  0  0
   11.9706   14.2789   22.8179 C   0  0  0  0  0  0  0  0  0  0  0  0
   12.1870   14.3950   21.3243 C   0  0  0  0  0  0  0  0  0  0  0  0
   11.0815   15.0174   20.5661 C   0  0  0  0  0  0  0  0  0  0  0  0
   11.0191   15.1595   19.1708 C   0  0  0  0  0  0  0  0  0  0  0  0
    9.9701   15.8826   18.7694 N   0  0  0  0  0  0  0  0  0  0  0  0
    9.4108   16.2781   19.9300 N   0  0  0  0  0  0  0  0  0  0  0  0
    9.9387   15.6353   21.0045 C   0  0  0  0  0  0  0  0  0  0  0  0
    9.2113   11.0659   23.9145 C   0  0  0  0  0  0  0  0  0  0  0  0
    8.3600   10.0440   24.2987 C   0  0  0  0  0  0  0  0  0  0  0  0
    7.3008   10.2065   25.1308 N   0  0  0  0  0  0  0  0  0  0  0  0
  1  2  1  0
  2  3  1  0
  3  4  1  0
  4  5  2  0
  5  6  1  0
  6  7  1  0
  7  8  2  0
  7  9  1  0
  9 10  1  0
 10 11  1  0
 11 12  1  0
 12 13  1  0
 13 14  2  0
 14 15  1  0
 15 16  1  0
  6 17  2  0
 17 18  1  0
 18 19  2  0
 19  4  1  0
 16 12  2  0
M  END
>  <tags>  (57) 
{'openbind_a71ev2a_c1_knitwork_pure', 'fragmenstein_placed'}

>  <distance_score>  (57) 
0.949325

>  <ref_mols>  (57) 
A0556a,A3435a

>  <smiles>  (57) 
CCSc1cc(C(=O)NCCc2cn[nH]c2)ccn1

>  <HIPPO Pose ID>  (57) 
26912

>  <inchikey>  (57) 
GEFPGABNNYEEAW-UHFFFAOYSA-N

>  <ref_pdb>  (57) 
A1180a

>  <alias>  (57) 
None

>  <energy_score>  (57) 
-0.993888

>  <HIPPO Compound ID>  (57) 
50851

$$$$
None
     RDKit          3D

 21 23  0  0  0  0  0  0  0  0999 V2000
    9.8870   14.0495   25.2942 O   0  0  0  0  0  0  0  0  0  0  0  0
    9.9303   13.3239   24.3843 C   0  0  0  0  0  0  0  0  0  0  0  0
   10.8889   13.2840   23.1912 N   0  0  0  0  0  0  0  0  0  0  0  0
   11.9419   14.1832   22.8092 C   0  0  0  0  0  0  0  0  0  0  0  0
   11.9852   14.4779   21.3190 C   0  0  0  0  0  0  0  0  0  0  0  0
   10.7556   15.1233   20.7768 C   0  0  0  0  0  0  0  0  0  0  0  0
   10.5735   15.6038   19.4651 C   0  0  0  0  0  0  0  0  0  0  0  0
    9.4826   16.4265   19.5598 C   0  0  0  0  0  0  0  0  0  0  0  0
    8.9896   16.2793   20.8187 N   0  0  0  0  0  0  0  0  0  0  0  0
    9.6926   15.3995   21.5413 N   0  0  0  0  0  0  0  0  0  0  0  0
    8.9573   12.1831   24.3907 C   0  0  0  0  0  0  0  0  0  0  0  0
    9.2563   10.9353   23.8463 C   0  0  0  0  0  0  0  0  0  0  0  0
    8.4626    9.8696   24.2144 C   0  0  0  0  0  0  0  0  0  0  0  0
    7.4132    9.9731   25.0610 N   0  0  0  0  0  0  0  0  0  0  0  0
    7.0895   11.2081   25.5223 C   0  0  0  0  0  0  0  0  0  0  0  0
    6.0197   11.3072   26.4512 N   0  0  0  0  0  0  0  0  0  0  0  0
    5.3580   12.4205   26.9127 C   0  0  0  0  0  0  0  0  0  0  0  0
    4.4220   11.9545   27.8118 C   0  0  0  0  0  0  0  0  0  0  0  0
    4.5057   10.6040   27.9521 N   0  0  0  0  0  0  0  0  0  0  0  0
    5.4518   10.2494   27.1140 C   0  0  0  0  0  0  0  0  0  0  0  0
    7.8160   12.3363   25.1866 C   0  0  0  0  0  0  0  0  0  0  0  0
  1  2  2  0
  2  3  1  0
  3  4  1  0
  4  5  1  0
  5  6  1  0
  6  7  1  0
  7  8  2  0
  8  9  1  0
  9 10  1  0
  2 11  1  0
 11 12  2  0
 12 13  1  0
 13 14  2  0
 14 15  1  0
 15 16  1  0
 16 17  1  0
 17 18  2  0
 18 19  1  0
 19 20  2  0
 15 21  2  0
 10  6  2  0
 21 11  1  0
 20 16  1  0
M  END
>  <tags>  (58) 
{'openbind_a71ev2a_c1_knitwork_pure', 'fragmenstein_placed'}

>  <distance_score>  (58) 
0.920213

>  <ref_mols>  (58) 
A0556a,A3435a

>  <smiles>  (58) 
O=C(NCCc1cc[nH]n1)c1ccnc(-n2ccnc2)c1

>  <HIPPO Pose ID>  (58) 
26924

>  <inchikey>  (58) 
ZZPZYEPSKIPXIU-UHFFFAOYSA-N

>  <ref_pdb>  (58) 
A1180a

>  <alias>  (58) 
None

>  <energy_score>  (58) 
-16.710466

>  <HIPPO Compound ID>  (58) 
16361

$$$$
None
     RDKit          3D

 17 18  0  0  0  0  0  0  0  0999 V2000
   10.7769   14.4735   23.5670 O   0  0  0  0  0  0  0  0  0  0  0  0
    9.7384   14.2873   22.9347 C   0  0  0  0  0  0  0  0  0  0  0  0
    8.4915   13.6724   23.5265 C   0  0  0  0  0  0  0  0  0  0  0  0
    8.8017   12.9107   24.8147 C   0  0  0  0  0  0  0  0  0  0  0  0
    7.5965   12.6431   25.6944 C   0  0  0  0  0  0  0  0  0  0  0  0
    7.1601   11.3228   25.8943 C   0  0  0  0  0  0  0  0  0  0  0  0
    6.0762   11.0641   26.7336 C   0  0  0  0  0  0  0  0  0  0  0  0
    5.6978    9.8123   26.9996 F   0  0  0  0  0  0  0  0  0  0  0  0
    5.3705   12.0795   27.3433 C   0  0  0  0  0  0  0  0  0  0  0  0
    5.7953   13.3828   27.1671 C   0  0  0  0  0  0  0  0  0  0  0  0
    6.9346   13.6821   26.3910 C   0  0  0  0  0  0  0  0  0  0  0  0
    7.4944   14.9905   26.4431 N   0  0  0  0  0  0  0  0  0  0  0  0
    6.5086   16.0462   26.1208 C   0  0  0  0  0  0  0  0  0  0  0  0
    6.1545   16.9248   27.3191 C   0  0  0  0  0  0  0  0  0  0  0  0
    7.3446   17.4512   28.1201 C   0  0  0  0  0  0  0  0  0  0  0  0
    8.5854   16.5814   28.0022 C   0  0  0  0  0  0  0  0  0  0  0  0
    8.2365   15.1365   27.7129 C   0  0  0  0  0  0  0  0  0  0  0  0
  1  2  2  0
  2  3  1  0
  3  4  1  0
  4  5  1  0
  5  6  2  0
  6  7  1  0
  7  8  1  0
  7  9  2  0
  9 10  1  0
 10 11  2  0
 11 12  1  0
 12 13  1  0
 13 14  1  0
 14 15  1  0
 15 16  1  0
 16 17  1  0
 11  5  1  0
 17 12  1  0
M  END
>  <tags>  (59) 
{'openbind_a71ev2a_c1_knitwork_pure', 'fragmenstein_placed'}

>  <distance_score>  (59) 
0.997349

>  <ref_mols>  (59) 
A4237b,A4320a

>  <smiles>  (59) 
O=CCCc1cc(F)ccc1N1CCCCC1

>  <HIPPO Pose ID>  (59) 
27400

>  <inchikey>  (59) 
BQGWDOQDBRNDPW-UHFFFAOYSA-N

>  <ref_pdb>  (59) 
A0309a

>  <alias>  (59) 
None

>  <energy_score>  (59) 
-30.96067

>  <HIPPO Compound ID>  (59) 
70596

$$$$
None
     RDKit          3D

 14 15  0  0  0  0  0  0  0  0999 V2000
    5.8901   13.2059   26.5359 C   0  0  0  0  0  0  0  0  0  0  0  0
    6.6368   12.1034   25.7805 C   0  0  2  0  0  0  0  0  0  0  0  0
    6.2697   10.8243   26.4856 C   0  0  0  0  0  0  0  0  0  0  0  0
    6.0128    9.7764   25.9052 O   0  0  0  0  0  0  0  0  0  0  0  0
    8.0954   12.3095   25.7874 N   0  0  0  0  0  0  0  0  0  0  0  0
    8.5434   13.6770   25.4699 C   0  0  0  0  0  0  0  0  0  0  0  0
    9.9601   13.6240   24.9265 C   0  0  0  0  0  0  0  0  0  0  0  0
    9.9769   12.2457   24.3941 C   0  0  0  0  0  0  0  0  0  0  0  0
   10.9017   11.6741   23.5424 C   0  0  0  0  0  0  0  0  0  0  0  0
   10.7259   10.3431   23.2083 C   0  0  0  0  0  0  0  0  0  0  0  0
   11.8783    9.5233   22.0056 Br  0  0  0  0  0  0  0  0  0  0  0  0
    9.6823    9.5981   23.7291 C   0  0  0  0  0  0  0  0  0  0  0  0
    8.7758   10.2002   24.5919 C   0  0  0  0  0  0  0  0  0  0  0  0
    8.8970   11.5338   24.9179 C   0  0  0  0  0  0  0  0  0  0  0  0
  2  1  1  1
  2  3  1  0
  3  4  2  0
  2  5  1  0
  5  6  1  0
  6  7  1  0
  7  8  1  0
  8  9  2  0
  9 10  1  0
 10 11  1  0
 10 12  2  0
 12 13  1  0
 13 14  2  0
 14  5  1  0
 14  8  1  0
M  END
>  <tags>  (60) 
{'openbind_a71ev2a_c1_knitwork_pure', 'fragmenstein_placed'}

>  <distance_score>  (60) 
0.908276

>  <ref_mols>  (60) 
A4509a,A1778a

>  <smiles>  (60) 
C[C@H](C=O)N1CCc2cc(Br)ccc21

>  <HIPPO Pose ID>  (60) 
28690

>  <inchikey>  (60) 
VXPPOOOFALPUBZ-UHFFFAOYSA-N

>  <ref_pdb>  (60) 
A0309a

>  <alias>  (60) 
None

>  <energy_score>  (60) 
-15.552726

>  <HIPPO Compound ID>  (60) 
53777

$$$$
None
     RDKit          3D

 22 24  0  0  0  0  0  0  0  0999 V2000
   18.3406   -6.0121   19.5814 C   0  0  0  0  0  0  0  0  0  0  0  0
   18.0468   -5.4201   18.3212 O   0  0  0  0  0  0  0  0  0  0  0  0
   16.7210   -5.4969   18.0228 C   0  0  0  0  0  0  0  0  0  0  0  0
   16.1501   -6.6834   17.5790 C   0  0  0  0  0  0  0  0  0  0  0  0
   14.8577   -6.8077   17.2021 N   0  0  0  0  0  0  0  0  0  0  0  0
   14.1088   -5.6871   17.2790 C   0  0  0  0  0  0  0  0  0  0  0  0
   14.5928   -4.4526   17.6867 C   0  0  0  0  0  0  0  0  0  0  0  0
   15.9415   -4.3442   18.0580 C   0  0  0  0  0  0  0  0  0  0  0  0
   16.5539   -3.0095   18.3651 C   0  0  0  0  0  0  0  0  0  0  0  0
   16.9130   -2.7141   19.7774 N   0  0  0  0  0  0  0  0  0  0  0  0
   18.4727   -2.1202   20.0102 S   0  0  0  0  0  0  0  0  0  0  0  0
   18.4425   -0.7447   19.5848 O   0  0  0  0  0  0  0  0  0  0  0  0
   19.3986   -3.0799   19.4691 O   0  0  0  0  0  0  0  0  0  0  0  0
   18.7855   -2.1595   21.7256 C   0  0  0  0  0  0  0  0  0  0  0  0
   18.9520   -3.2302   22.5849 C   0  0  0  0  0  0  0  0  0  0  0  0
   19.2987   -2.8348   23.8487 N   0  0  0  0  0  0  0  0  0  0  0  0
   19.3439   -1.5231   23.7818 C   0  0  0  0  0  0  0  0  0  0  0  0
   19.6461   -0.5621   24.7769 C   0  0  0  0  0  0  0  0  0  0  0  0
   19.5282    0.7400   24.4916 C   0  0  0  0  0  0  0  0  0  0  0  0
   19.1025    1.0822   23.1171 C   0  0  0  0  0  0  0  0  0  0  0  0
   18.8455    0.2463   22.1628 N   0  0  0  0  0  0  0  0  0  0  0  0
   18.9903   -1.0583   22.5190 N   0  0  0  0  0  0  0  0  0  0  0  0
  1  2  1  0
  2  3  1  0
  3  4  2  0
  4  5  1  0
  5  6  2  0
  6  7  1  0
  7  8  2  0
  8  9  1  0
  9 10  1  0
 10 11  1  0
 11 12  2  0
 11 13  2  0
 11 14  1  0
 14 15  2  0
 15 16  1  0
 16 17  2  0
 17 18  1  0
 18 19  2  0
 19 20  1  0
 20 21  2  0
 21 22  1  0
  8  3  1  0
 22 14  1  0
 22 17  1  0
M  END
>  <tags>  (61) 
{'openbind_a71ev2a_c1_knitwork_pure', 'fragmenstein_placed'}

>  <distance_score>  (61) 
0.883355

>  <ref_mols>  (61) 
A0202a,A1105b

>  <smiles>  (61) 
COc1cnccc1CNS(=O)(=O)c1cnc2cccnn12

>  <HIPPO Pose ID>  (61) 
30306

>  <inchikey>  (61) 
TZXZNVJKNDRZQE-UHFFFAOYSA-N

>  <ref_pdb>  (61) 
A0514b

>  <alias>  (61) 
None

>  <energy_score>  (61) 
-33.212312

>  <HIPPO Compound ID>  (61) 
76574

$$$$
None
     RDKit          3D

 20 22  0  0  0  0  0  0  0  0999 V2000
    4.7473   10.7509   28.3067 C   0  0  0  0  0  0  0  0  0  0  0  0
    4.8959   11.9042   27.4817 O   0  0  0  0  0  0  0  0  0  0  0  0
    5.9127   11.7989   26.5710 C   0  0  0  0  0  0  0  0  0  0  0  0
    6.1591   10.6561   25.8232 C   0  0  0  0  0  0  0  0  0  0  0  0
    7.2544   10.5397   24.9554 C   0  0  0  0  0  0  0  0  0  0  0  0
    8.1052   11.6306   24.8710 C   0  0  0  0  0  0  0  0  0  0  0  0
    9.2862   11.8035   24.1850 N   0  0  0  0  0  0  0  0  0  0  0  0
    9.8616   12.9871   24.5873 C   0  0  0  0  0  0  0  0  0  0  0  0
   11.2818   13.3294   24.3482 C   0  0  0  0  0  0  0  0  0  0  0  0
   11.7025   13.1480   22.9846 N   0  0  0  0  0  0  0  0  0  0  0  0
   10.9373   14.0218   22.1108 C   0  0  0  0  0  0  0  0  0  0  0  0
   11.7952   14.5563   20.9745 C   0  0  0  0  0  0  0  0  0  0  0  0
   10.9331   15.4320   20.1903 C   0  0  0  0  0  0  0  0  0  0  0  0
   10.5203   15.4585   18.8929 C   0  0  0  0  0  0  0  0  0  0  0  0
    9.5580   16.4116   18.7568 N   0  0  0  0  0  0  0  0  0  0  0  0
    9.4924   16.9849   19.9363 C   0  0  0  0  0  0  0  0  0  0  0  0
   10.3007   16.4346   20.8660 O   0  0  0  0  0  0  0  0  0  0  0  0
    8.8973   13.7025   25.2632 C   0  0  0  0  0  0  0  0  0  0  0  0
    7.8345   12.8196   25.5484 C   0  0  0  0  0  0  0  0  0  0  0  0
    6.7105   12.9200   26.3891 C   0  0  0  0  0  0  0  0  0  0  0  0
  1  2  1  0
  2  3  1  0
  3  4  2  0
  4  5  1  0
  5  6  2  0
  6  7  1  0
  7  8  1  0
  8  9  1  0
  9 10  1  0
 10 11  1  0
 11 12  1  0
 12 13  1  0
 13 14  2  0
 14 15  1  0
 15 16  2  0
 16 17  1  0
  8 18  2  0
 18 19  1  0
 19 20  2  0
 20  3  1  0
 19  6  1  0
 17 13  1  0
M  END
>  <tags>  (62) 
{'openbind_a71ev2a_c1_knitwork_pure', 'fragmenstein_placed'}

>  <distance_score>  (62) 
0.910787

>  <ref_mols>  (62) 
A3623a,A3568a

>  <smiles>  (62) 
COc1ccc2[nH]c(CNCCc3cnco3)cc2c1

>  <HIPPO Pose ID>  (62) 
31267

>  <inchikey>  (62) 
ZSXTWNYTZPYIOF-UHFFFAOYSA-N

>  <ref_pdb>  (62) 
A0514b

>  <alias>  (62) 
None

>  <energy_score>  (62) 
-15.480944

>  <HIPPO Compound ID>  (62) 
45878

$$$$
None
     RDKit          3D

 22 24  0  0  0  0  0  0  0  0999 V2000
   20.7968   14.9636    2.4417 C   0  0  0  0  0  0  0  0  0  0  0  0
   22.2271   14.4908    2.6532 C   0  0  0  0  0  0  0  0  0  0  0  0
   22.7206   13.7353    1.4707 C   0  0  0  0  0  0  0  0  0  0  0  0
   22.0892   13.5570    0.3262 N   0  0  0  0  0  0  0  0  0  0  0  0
   22.9092   12.8488   -0.5176 N   0  0  0  0  0  0  0  0  0  0  0  0
   24.0263   12.6051    0.1270 C   0  0  0  0  0  0  0  0  0  0  0  0
   23.9419   13.1252    1.3878 N   0  0  0  0  0  0  0  0  0  0  0  0
   25.0237   13.1616    2.3431 C   0  0  0  0  0  0  0  0  0  0  0  0
   26.3247   12.4968    1.8524 C   0  0  2  0  0  0  0  0  0  0  0  0
   27.4918   13.1138    2.4628 N   0  0  0  0  0  0  0  0  0  0  0  0
   28.9615   12.6247    2.5461 C   0  0  0  0  0  0  0  0  0  0  0  0
   29.4430   11.6192    2.2059 O   0  0  0  0  0  0  0  0  0  0  0  0
   29.7477   13.7782    3.1765 C   0  0  0  0  0  0  0  0  0  0  0  0
   31.0314   13.2965    3.8596 C   0  0  0  0  0  0  0  0  0  0  0  0
   31.7489   14.3579    4.7189 C   0  0  1  0  0  0  0  0  0  0  0  0
   32.1096   15.6257    3.9380 C   0  0  0  0  0  0  0  0  0  0  0  0
   32.8992   16.6051    4.8173 C   0  0  0  0  0  0  0  0  0  0  0  0
   32.6096   16.4452    6.3133 C   0  0  0  0  0  0  0  0  0  0  0  0
   31.2244   16.0554    6.5181 N   0  0  0  0  0  0  0  0  0  0  0  0
   30.9588   14.7117    5.9995 C   0  0  0  0  0  0  0  0  0  0  0  0
   26.4749   12.5218    0.3223 C   0  0  0  0  0  0  0  0  0  0  0  0
   25.2471   11.9313   -0.3635 C   0  0  0  0  0  0  0  0  0  0  0  0
  1  2  1  0
  2  3  1  0
  3  4  2  0
  4  5  1  0
  5  6  2  0
  6  7  1  0
  7  8  1  0
  8  9  1  0
  9 10  1  1
 10 11  1  0
 11 12  2  0
 11 13  1  0
 13 14  1  0
 15 14  1  6
 15 16  1  0
 16 17  1  0
 17 18  1  0
 18 19  1  0
 19 20  1  0
  9 21  1  0
 21 22  1  0
  7  3  1  0
 20 15  1  0
 22  6  1  0
M  END
>  <tags>  (63) 
{'openbind_a71ev2a_c1_knitwork_pure', 'fragmenstein_placed'}

>  <distance_score>  (63) 
0.507516

>  <ref_mols>  (63) 
A3849a,A4836a,A4874a,A0239a,A4712a

>  <smiles>  (63) 
CCc1nnc2n1C[C@H](NC(=O)CC[C@H]1CCCNC1)CC2

>  <HIPPO Pose ID>  (63) 
31487

>  <inchikey>  (63) 
HLGWOCDYUXZSIL-UHFFFAOYSA-N

>  <ref_pdb>  (63) 
A0514b

>  <alias>  (63) 
None

>  <energy_score>  (63) 
-24.19088

>  <HIPPO Compound ID>  (63) 
76291

$$$$
None
     RDKit          3D

 18 19  0  0  0  0  0  0  0  0999 V2000
   18.6003   21.3132    1.4041 C   0  0  0  0  0  0  0  0  0  0  0  0
   19.6815   20.8997    2.2403 O   0  0  0  0  0  0  0  0  0  0  0  0
   20.2432   19.7131    1.8689 C   0  0  0  0  0  0  0  0  0  0  0  0
   19.8780   19.0353    0.9182 O   0  0  0  0  0  0  0  0  0  0  0  0
   21.3123   19.3905    2.7711 C   0  0  0  0  0  0  0  0  0  0  0  0
   21.6781   20.1253    3.8750 N   0  0  0  0  0  0  0  0  0  0  0  0
   22.6951   19.4746    4.5102 C   0  0  0  0  0  0  0  0  0  0  0  0
   23.3055   19.9602    5.8384 C   0  0  0  0  0  0  0  0  0  0  0  0
   24.3145   19.3394    6.5293 C   0  0  0  0  0  0  0  0  0  0  0  0
   24.5160   20.0398    7.6824 O   0  0  0  0  0  0  0  0  0  0  0  0
   23.6149   21.0615    7.6007 C   0  0  0  0  0  0  0  0  0  0  0  0
   22.8808   21.0791    6.5091 N   0  0  0  0  0  0  0  0  0  0  0  0
   23.0373   18.3882    3.8576 N   0  0  0  0  0  0  0  0  0  0  0  0
   22.1801   18.3079    2.7803 C   0  0  0  0  0  0  0  0  0  0  0  0
   22.2116   17.1320    1.8516 C   0  0  0  0  0  0  0  0  0  0  0  0
   23.3953   16.1690    2.0641 C   0  0  0  0  0  0  0  0  0  0  0  0
   23.0906   14.8120    1.4288 C   0  0  0  0  0  0  0  0  0  0  0  0
   24.6941   16.7409    1.4926 C   0  0  0  0  0  0  0  0  0  0  0  0
  1  2  1  0
  2  3  1  0
  3  4  2  0
  3  5  1  0
  5  6  1  0
  6  7  1  0
  7  8  1  0
  8  9  2  0
  9 10  1  0
 10 11  1  0
 11 12  2  0
  7 13  2  0
 13 14  1  0
 14 15  1  0
 15 16  1  0
 16 17  1  0
 16 18  1  0
 14  5  2  0
 12  8  1  0
M  END
>  <tags>  (64) 
{'openbind_a71ev2a_c1_knitwork_pure', 'fragmenstein_placed'}

>  <distance_score>  (64) 
0.466843

>  <ref_mols>  (64) 
A3568a,A0309a

>  <smiles>  (64) 
COC(=O)c1[nH]c(-c2cocn2)nc1CC(C)C

>  <HIPPO Pose ID>  (64) 
31494

>  <inchikey>  (64) 
SYIPTBSODVTYNX-UHFFFAOYSA-N

>  <ref_pdb>  (64) 
A0239a

>  <alias>  (64) 
None

>  <energy_score>  (64) 
-35.96482

>  <HIPPO Compound ID>  (64) 
79400

$$$$
None
     RDKit          3D

 18 20  0  0  0  0  0  0  0  0999 V2000
   10.0575   13.7630   24.9641 C   0  0  0  0  0  0  0  0  0  0  0  0
    9.6894   12.4196   24.4539 C   0  0  0  0  0  0  0  0  0  0  0  0
    8.6980   11.7174   25.1379 C   0  0  0  0  0  0  0  0  0  0  0  0
    8.3612   10.4437   24.8797 N   0  0  0  0  0  0  0  0  0  0  0  0
    9.0525    9.8480   23.8855 C   0  0  0  0  0  0  0  0  0  0  0  0
   10.0188   10.4791   23.1155 C   0  0  0  0  0  0  0  0  0  0  0  0
   10.3362   11.8137   23.3645 C   0  0  0  0  0  0  0  0  0  0  0  0
   11.3475   12.4454   22.5891 N   0  0  0  0  0  0  0  0  0  0  0  0
   10.9254   13.6832   21.9304 C   0  0  0  0  0  0  0  0  0  0  0  0
   11.9760   14.3510   21.0678 C   0  0  0  0  0  0  0  0  0  0  0  0
   12.0012   14.1517   19.6857 C   0  0  0  0  0  0  0  0  0  0  0  0
   12.6430   15.0331   18.8115 C   0  0  0  0  0  0  0  0  0  0  0  0
   13.3110   16.1410   19.3361 C   0  0  0  0  0  0  0  0  0  0  0  0
   13.9935   17.2491   18.7706 C   0  0  0  0  0  0  0  0  0  0  0  0
   14.4507   18.0247   19.8097 C   0  0  0  0  0  0  0  0  0  0  0  0
   14.1063   17.3978   20.9747 N   0  0  0  0  0  0  0  0  0  0  0  0
   13.3673   16.2752   20.7194 C   0  0  0  0  0  0  0  0  0  0  0  0
   12.7470   15.3850   21.6044 C   0  0  0  0  0  0  0  0  0  0  0  0
  1  2  1  0
  2  3  2  0
  3  4  1  0
  4  5  2  0
  5  6  1  0
  6  7  2  0
  7  8  1  0
  8  9  1  0
  9 10  1  0
 10 11  2  0
 11 12  1  0
 12 13  2  0
 13 14  1  0
 14 15  2  0
 15 16  1  0
 16 17  1  0
 17 18  2  0
  7  2  1  0
 18 10  1  0
 17 13  1  0
M  END
>  <tags>  (65) 
{'openbind_a71ev2a_c1_knitwork_pure', 'fragmenstein_placed'}

>  <distance_score>  (65) 
0.969415

>  <ref_mols>  (65) 
A3568a,A2629a

>  <smiles>  (65) 
Cc1cnccc1NCc1ccc2cc[nH]c2c1

>  <HIPPO Pose ID>  (65) 
31842

>  <inchikey>  (65) 
AGWJYAALTRFIFA-UHFFFAOYSA-N

>  <ref_pdb>  (65) 
A0239a

>  <alias>  (65) 
None

>  <energy_score>  (65) 
-11.979469

>  <HIPPO Compound ID>  (65) 
50246

$$$$
None
     RDKit          3D

 24 27  0  0  0  0  0  0  0  0999 V2000
   10.6877   15.0658   22.9114 O   0  0  0  0  0  0  0  0  0  0  0  0
   11.0139   14.1329   22.3436 C   0  0  0  0  0  0  0  0  0  0  0  0
   10.6399   12.6383   22.5663 N   0  0  0  0  0  0  0  0  0  0  0  0
    9.7428   12.0593   23.4529 C   0  0  0  0  0  0  0  0  0  0  0  0
    9.7330   10.6756   23.5917 C   0  0  0  0  0  0  0  0  0  0  0  0
    8.8145   10.0564   24.4465 C   0  0  0  0  0  0  0  0  0  0  0  0
    7.8630   10.8353   25.1322 C   0  0  0  0  0  0  0  0  0  0  0  0
    6.7762   10.5560   26.0080 C   0  0  0  0  0  0  0  0  0  0  0  0
    6.1091   11.7287   26.2586 C   0  0  0  0  0  0  0  0  0  0  0  0
    6.7342   12.6978   25.5331 N   0  0  0  0  0  0  0  0  0  0  0  0
    7.8643   12.2089   24.9245 C   0  0  0  0  0  0  0  0  0  0  0  0
    8.8204   12.8589   24.1370 C   0  0  0  0  0  0  0  0  0  0  0  0
   11.9999   13.9756   21.1597 N   0  0  0  0  0  0  0  0  0  0  0  0
   12.7009   14.9712   20.3910 C   0  0  1  0  0  0  0  0  0  0  0  0
   12.3582   15.0104   18.9158 C   0  0  0  0  0  0  0  0  0  0  0  0
   13.1777   16.2152   18.4620 C   0  0  0  0  0  0  0  0  0  0  0  0
   13.0238   17.1665   19.5643 N   0  0  0  0  0  0  0  0  0  0  0  0
   13.8554   18.2707   19.5750 C   0  0  0  0  0  0  0  0  0  0  0  0
   13.7402   19.2281   20.5834 C   0  0  0  0  0  0  0  0  0  0  0  0
   14.5662   20.3514   20.5869 C   0  0  0  0  0  0  0  0  0  0  0  0
   15.4900   20.5106   19.5671 C   0  0  0  0  0  0  0  0  0  0  0  0
   15.5338   19.5399   18.5855 C   0  0  0  0  0  0  0  0  0  0  0  0
   14.7410   18.4475   18.5697 N   0  0  0  0  0  0  0  0  0  0  0  0
   12.7793   16.4392   20.8308 C   0  0  0  0  0  0  0  0  0  0  0  0
  1  2  2  0
  2  3  1  0
  3  4  1  0
  4  5  2  0
  5  6  1  0
  6  7  2  0
  7  8  1  0
  8  9  2  0
  9 10  1  0
 10 11  1  0
 11 12  2  0
  2 13  1  0
 14 13  1  1
 14 15  1  0
 15 16  1  0
 16 17  1  0
 17 18  1  0
 18 19  2  0
 19 20  1  0
 20 21  2  0
 21 22  1  0
 22 23  2  0
 17 24  1  0
 12  4  1  0
 24 14  1  0
 11  7  1  0
 23 18  1  0
M  END
>  <tags>  (66) 
{'openbind_a71ev2a_c1_knitwork_pure', 'fragmenstein_placed'}

>  <distance_score>  (66) 
0.885981

>  <ref_mols>  (66) 
A3568a,A2629a

>  <smiles>  (66) 
O=C(Nc1ccc2cc[nH]c2c1)N[C@H]1CCN(c2ccccn2)C1

>  <HIPPO Pose ID>  (66) 
31846

>  <inchikey>  (66) 
CYXFROYLOHDBPB-UHFFFAOYSA-N

>  <ref_pdb>  (66) 
A0239a

>  <alias>  (66) 
None

>  <energy_score>  (66) 
-7.639077

>  <HIPPO Compound ID>  (66) 
48099

$$$$
C45982-P611
     RDKit          3D

 23 26  0  0  0  0  0  0  0  0999 V2000
    7.9411   13.5581   22.4202 O   0  0  0  0  0  0  0  0  0  0  0  0
    8.0980   14.1460   23.7346 S   0  0  0  0  0  0  0  0  0  0  0  0
    6.9338   14.6988   24.4041 O   0  0  0  0  0  0  0  0  0  0  0  0
    9.3033   15.4832   23.7753 C   0  0  1  0  0  0  0  0  0  0  0  0
   10.6010   15.2925   24.5740 C   0  0  0  0  0  0  0  0  0  0  0  0
   11.8078   14.8196   23.7626 C   0  0  0  0  0  0  0  0  0  0  0  0
   11.9240   15.5553   22.4385 C   0  0  0  0  0  0  0  0  0  0  0  0
   10.6641   15.4037   21.7559 N   0  0  0  0  0  0  0  0  0  0  0  0
   10.6532   15.4961   20.4188 C   0  0  0  0  0  0  0  0  0  0  0  0
    9.5938   15.6219   19.6722 N   0  0  0  0  0  0  0  0  0  0  0  0
   10.0871   15.6834   18.4194 C   0  0  0  0  0  0  0  0  0  0  0  0
   11.4475   15.6182   18.4520 C   0  0  0  0  0  0  0  0  0  0  0  0
   11.8312   15.5046   19.7434 O   0  0  0  0  0  0  0  0  0  0  0  0
    9.5094   16.0368   22.3857 C   0  0  0  0  0  0  0  0  0  0  0  0
    8.7778   12.9371   24.7360 N   0  0  0  0  0  0  0  0  0  0  0  0
    9.7754   12.0423   24.0378 C   0  0  0  0  0  0  0  0  0  0  0  0
    9.1869   10.6271   23.9920 C   0  0  0  0  0  0  0  0  0  0  0  0
    8.0176   10.7469   24.9023 C   0  0  0  0  0  0  0  0  0  0  0  0
    7.1590    9.7459   25.3043 C   0  0  0  0  0  0  0  0  0  0  0  0
    6.0840   10.0712   26.1343 C   0  0  0  0  0  0  0  0  0  0  0  0
    5.8879   11.3878   26.5619 C   0  0  0  0  0  0  0  0  0  0  0  0
    6.7603   12.3918   26.1500 C   0  0  0  0  0  0  0  0  0  0  0  0
    7.8021   12.0553   25.3017 C   0  0  0  0  0  0  0  0  0  0  0  0
  1  2  2  0
  2  3  2  0
  4  2  1  6
  4  5  1  0
  5  6  1  0
  6  7  1  0
  7  8  1  0
  8  9  1  0
  9 10  2  0
 10 11  1  0
 11 12  2  0
 12 13  1  0
  8 14  1  0
  2 15  1  0
 15 16  1  0
 16 17  1  0
 17 18  1  0
 18 19  2  0
 19 20  1  0
 20 21  2  0
 21 22  1  0
 22 23  2  0
 14  4  1  0
 23 15  1  0
 13  9  1  0
 23 18  1  0
M  END
>  <tags>  (67) 
{'openbind_a71ev2a_c1_knitwork_pure', 'fragmenstein_placed'}

>  <distance_score>  (67) 
0.997827

>  <ref_mols>  (67) 
A3623a,A5393a

>  <smiles>  (67) 
O=S(=O)([C@H]1CCCN(c2ncco2)C1)N1CCc2ccccc21

>  <HIPPO Pose ID>  (67) 
123616

>  <inchikey>  (67) 
QXILYQDWBQFOGE-UHFFFAOYSA-N

>  <ref_pdb>  (67) 
A1180a

>  <alias>  (67) 
C45982-P611

>  <energy_score>  (67) 
-61.135087

>  <HIPPO Compound ID>  (67) 
47038

$$$$
C33321-P170
     RDKit          3D

 14 15  0  0  0  0  0  0  0  0999 V2000
    7.0381   10.3908   25.8630 O   0  0  0  0  0  0  0  0  0  0  0  0
    7.8008   10.8530   25.0216 C   0  0  0  0  0  0  0  0  0  0  0  0
    8.5970    9.9524   24.1295 C   0  0  0  0  0  0  0  0  0  0  0  0
    9.7349   10.5535   23.3501 C   0  0  0  0  0  0  0  0  0  0  0  0
    9.9206   12.0573   23.4739 C   0  0  0  0  0  0  0  0  0  0  0  0
    8.6138   12.7964   23.7398 C   0  0  2  0  0  0  0  0  0  0  0  0
    8.8591   14.3007   23.9581 C   0  0  0  0  0  0  0  0  0  0  0  0
    9.1050   14.9406   22.7137 O   0  0  0  0  0  0  0  0  0  0  0  0
   10.3906   15.1247   22.3568 C   0  0  0  0  0  0  0  0  0  0  0  0
   10.8366   15.3382   21.0406 C   0  0  0  0  0  0  0  0  0  0  0  0
   12.1571   15.5066   20.9876 N   0  0  0  0  0  0  0  0  0  0  0  0
   12.5415   15.4569   22.2676 N   0  0  0  0  0  0  0  0  0  0  0  0
   11.5188   15.1971   23.1397 C   0  0  0  0  0  0  0  0  0  0  0  0
    7.9427   12.1974   24.8779 N   0  0  0  0  0  0  0  0  0  0  0  0
  1  2  2  0
  2  3  1  0
  3  4  1  0
  4  5  1  0
  5  6  1  0
  6  7  1  1
  7  8  1  0
  8  9  1  0
  9 10  1  0
 10 11  2  0
 11 12  1  0
 12 13  1  0
  6 14  1  0
 14  2  1  0
 13  9  2  0
M  END
>  <tags>  (68) 
{'openbind_a71ev2a_c1_knitwork_pure', 'fragmenstein_placed'}

>  <distance_score>  (68) 
0.81618

>  <ref_mols>  (68) 
A3579a,A0556a

>  <smiles>  (68) 
O=C1CCC[C@H](COc2cn[nH]c2)N1

>  <HIPPO Pose ID>  (68) 
123821

>  <inchikey>  (68) 
QYUCNRDAJOKRPK-UHFFFAOYSA-N

>  <ref_pdb>  (68) 
A1180a

>  <alias>  (68) 
C33321-P170

>  <energy_score>  (68) 
-33.561941

>  <HIPPO Compound ID>  (68) 
62872

$$$$
C47239-P100
     RDKit          3D

 19 21  0  0  0  0  0  0  0  0999 V2000
   -3.3675    3.8049    2.0780 O   0  0  0  0  0  0  0  0  0  0  0  0
   -3.0195    4.3480    3.1103 C   0  0  0  0  0  0  0  0  0  0  0  0
   -1.8365    5.0547    3.2568 N   0  0  0  0  0  0  0  0  0  0  0  0
   -1.6172    5.4045    4.6378 C   0  0  1  0  0  0  0  0  0  0  0  0
   -0.9736    6.7466    4.8441 C   0  0  0  0  0  0  0  0  0  0  0  0
   -1.1000    7.7936    3.9198 C   0  0  0  0  0  0  0  0  0  0  0  0
   -0.4804    9.0225    4.1548 C   0  0  0  0  0  0  0  0  0  0  0  0
    0.2621    9.2258    5.3171 C   0  0  0  0  0  0  0  0  0  0  0  0
    0.3764    8.2037    6.2558 C   0  0  0  0  0  0  0  0  0  0  0  0
   -0.2420    6.9806    6.0138 C   0  0  0  0  0  0  0  0  0  0  0  0
   -0.1004    5.9923    6.9124 F   0  0  0  0  0  0  0  0  0  0  0  0
   -3.0221    5.2948    5.2385 C   0  0  0  0  0  0  0  0  0  0  0  0
   -3.6985    4.3932    4.3266 N   0  0  0  0  0  0  0  0  0  0  0  0
   -5.0962    4.0068    4.5176 C   0  0  1  0  0  0  0  0  0  0  0  0
   -6.0653    4.9383    3.7635 C   0  0  0  0  0  0  0  0  0  0  0  0
   -6.8190    4.2001    2.6618 C   0  0  0  0  0  0  0  0  0  0  0  0
   -7.5220    2.9460    3.1933 C   0  0  0  0  0  0  0  0  0  0  0  0
   -6.7795    2.2074    4.2207 N   0  0  0  0  0  0  0  0  0  0  0  0
   -5.3476    2.5162    4.1861 C   0  0  0  0  0  0  0  0  0  0  0  0
  1  2  2  0
  2  3  1  0
  3  4  1  0
  4  5  1  6
  5  6  2  0
  6  7  1  0
  7  8  2  0
  8  9  1  0
  9 10  2  0
 10 11  1  0
  4 12  1  0
 12 13  1  0
 14 13  1  6
 14 15  1  0
 15 16  1  0
 16 17  1  0
 17 18  1  0
 18 19  1  0
 13  2  1  0
 19 14  1  0
 10  5  1  0
M  END
>  <tags>  (69) 
{'openbind_a71ev2a_c1_knitwork_pure', 'fragmenstein_placed'}

>  <distance_score>  (69) 
0.39214

>  <ref_mols>  (69) 
A1081b,A3616b,A4365b,A4873b,A3706b,A4877b,A4331a,A4706a

>  <smiles>  (69) 
O=C1N[C@@H](c2ccccc2F)CN1[C@H]1CCCNC1

>  <HIPPO Pose ID>  (69) 
124589

>  <inchikey>  (69) 
XOTFNADYVUYIDE-UHFFFAOYSA-N

>  <ref_pdb>  (69) 
A1180a

>  <alias>  (69) 
C47239-P100

>  <energy_score>  (69) 
-37.001182

>  <HIPPO Compound ID>  (69) 
38721

$$$$
C46327-P296
     RDKit          3D

 18 20  0  0  0  0  0  0  0  0999 V2000
    8.1883   10.7972   24.7059 C   0  0  0  0  0  0  0  0  0  0  0  0
    7.9693   12.1672   24.8501 C   0  0  0  0  0  0  0  0  0  0  0  0
    7.0351   12.6730   25.7738 C   0  0  0  0  0  0  0  0  0  0  0  0
    6.8396   14.1595   25.9337 C   0  0  0  0  0  0  0  0  0  0  0  0
    5.5827   14.4917   26.6314 N   0  0  0  0  0  0  0  0  0  0  0  0
    5.4071   15.9527   26.7456 C   0  0  0  0  0  0  0  0  0  0  0  0
    6.4370   16.6826   27.6308 C   0  0  1  0  0  0  0  0  0  0  0  0
    6.1462   18.1880   27.6739 C   0  0  0  0  0  0  0  0  0  0  0  0
    7.1774   18.9296   28.5322 C   0  0  0  0  0  0  0  0  0  0  0  0
    7.9576   18.0079   29.4712 C   0  0  0  0  0  0  0  0  0  0  0  0
    7.0765   17.0084   30.0597 N   0  0  0  0  0  0  0  0  0  0  0  0
    6.4764   16.1138   29.0630 C   0  0  0  0  0  0  0  0  0  0  0  0
    6.3746   11.7148   26.5537 C   0  0  0  0  0  0  0  0  0  0  0  0
    5.4573   11.8805   27.5609 N   0  0  0  0  0  0  0  0  0  0  0  0
    5.0037   10.7328   28.0855 N   0  0  0  0  0  0  0  0  0  0  0  0
    5.6605    9.8074   27.3813 C   0  0  0  0  0  0  0  0  0  0  0  0
    6.5507   10.3485   26.4244 C   0  0  0  0  0  0  0  0  0  0  0  0
    7.4745    9.8731   25.4790 C   0  0  0  0  0  0  0  0  0  0  0  0
  1  2  2  0
  2  3  1  0
  3  4  1  0
  4  5  1  0
  5  6  1  0
  7  6  1  6
  7  8  1  0
  8  9  1  0
  9 10  1  0
 10 11  1  0
 11 12  1  0
  3 13  2  0
 13 14  1  0
 14 15  1  0
 15 16  2  0
 16 17  1  0
 17 18  2  0
 18  1  1  0
 12  7  1  0
 17 13  1  0
M  END
>  <tags>  (70) 
{'openbind_a71ev2a_c1_knitwork_pure', 'fragmenstein_placed'}

>  <distance_score>  (70) 
0.818822

>  <ref_mols>  (70) 
A4311a,A0486a

>  <smiles>  (70) 
c1cc(CNC[C@H]2CCCNC2)c2[nH]ncc2c1

>  <HIPPO Pose ID>  (70) 
125932

>  <inchikey>  (70) 
FQPQQAXCJVPZKB-UHFFFAOYSA-N

>  <ref_pdb>  (70) 
A1180a

>  <alias>  (70) 
C46327-P296

>  <energy_score>  (70) 
-28.134818

>  <HIPPO Compound ID>  (70) 
46503

$$$$
C97401-P9
     RDKit          3D

 21 23  0  0  0  0  0  0  0  0999 V2000
   26.3620   10.7077    1.1225 C   0  0  0  0  0  0  0  0  0  0  0  0
   27.0516   11.7116    1.9473 C   0  0  0  0  0  0  0  0  0  0  0  0
   28.4064   11.6126    2.1691 N   0  0  0  0  0  0  0  0  0  0  0  0
   28.7852   12.6542    2.9518 C   0  0  0  0  0  0  0  0  0  0  0  0
   27.7665   13.4143    3.2682 N   0  0  0  0  0  0  0  0  0  0  0  0
   26.6535   12.8306    2.6712 C   0  0  0  0  0  0  0  0  0  0  0  0
   25.0447   13.4760    2.9284 S   0  0  0  0  0  0  0  0  0  0  0  0
   25.1238   14.8930    2.6548 O   0  0  0  0  0  0  0  0  0  0  0  0
   24.6277   12.9620    4.2103 O   0  0  0  0  0  0  0  0  0  0  0  0
   23.9510   12.8220    1.8085 N   0  0  0  0  0  0  0  0  0  0  0  0
   22.7147   13.6181    1.5563 C   0  0  0  0  0  0  0  0  0  0  0  0
   22.0059   14.0918    2.8204 C   0  0  0  0  0  0  0  0  0  0  0  0
   20.5997   14.3721    2.5845 N   0  0  0  0  0  0  0  0  0  0  0  0
   19.6808   13.3862    2.7490 N   0  0  0  0  0  0  0  0  0  0  0  0
   18.5170   14.0166    2.5723 C   0  0  0  0  0  0  0  0  0  0  0  0
   18.6758   15.3816    2.2522 C   0  0  0  0  0  0  0  0  0  0  0  0
   17.8168   16.4585    1.9750 C   0  0  0  0  0  0  0  0  0  0  0  0
   18.3752   17.7094    1.6868 C   0  0  0  0  0  0  0  0  0  0  0  0
   19.7579   17.8898    1.6767 C   0  0  0  0  0  0  0  0  0  0  0  0
   20.6272   16.8318    1.9567 C   0  0  0  0  0  0  0  0  0  0  0  0
   20.0528   15.5858    2.2423 C   0  0  0  0  0  0  0  0  0  0  0  0
  1  2  1  0
  2  3  1  0
  3  4  1  0
  4  5  2  0
  5  6  1  0
  6  7  1  0
  7  8  2  0
  7  9  2  0
  7 10  1  0
 10 11  1  0
 11 12  1  0
 12 13  1  0
 13 14  1  0
 14 15  2  0
 15 16  1  0
 16 17  2  0
 17 18  1  0
 18 19  2  0
 19 20  1  0
 20 21  2  0
  6  2  2  0
 21 13  1  0
 21 16  1  0
M  END
>  <tags>  (71) 
{'openbind_a71ev2a_c1_knitwork_pure', 'fragmenstein_placed'}

>  <distance_score>  (71) 
0.843548

>  <ref_mols>  (71) 
A0486a,A0309a

>  <smiles>  (71) 
Cc1[nH]cnc1S(=O)(=O)NCCn1ncc2ccccc21

>  <HIPPO Pose ID>  (71) 
126428

>  <inchikey>  (71) 
OHHKZZFRRXZMSR-UHFFFAOYSA-N

>  <ref_pdb>  (71) 
A1180a

>  <alias>  (71) 
C97401-P9

>  <energy_score>  (71) 
-389.534346

>  <HIPPO Compound ID>  (71) 
58344

$$$$
C97404-P9
     RDKit          3D

 19 21  0  0  0  0  0  0  0  0999 V2000
   25.2760   14.5822    3.2372 C   0  0  0  0  0  0  0  0  0  0  0  0
   25.1418   13.6256    2.0583 C   0  0  2  0  0  0  0  0  0  0  0  0
   23.8975   12.8690    2.0761 N   0  0  0  0  0  0  0  0  0  0  0  0
   22.6975   13.5854    1.6643 C   0  0  0  0  0  0  0  0  0  0  0  0
   21.9336   14.1095    2.8742 C   0  0  0  0  0  0  0  0  0  0  0  0
   20.5349   14.3773    2.5896 N   0  0  0  0  0  0  0  0  0  0  0  0
   19.6073   13.4044    2.7797 N   0  0  0  0  0  0  0  0  0  0  0  0
   18.4490   14.0353    2.5776 C   0  0  0  0  0  0  0  0  0  0  0  0
   18.6172   15.3947    2.2392 C   0  0  0  0  0  0  0  0  0  0  0  0
   17.7657   16.4728    1.9448 C   0  0  0  0  0  0  0  0  0  0  0  0
   18.3319   17.7169    1.6424 C   0  0  0  0  0  0  0  0  0  0  0  0
   19.7154   17.8896    1.6335 C   0  0  0  0  0  0  0  0  0  0  0  0
   20.5773   16.8301    1.9294 C   0  0  0  0  0  0  0  0  0  0  0  0
   19.9953   15.5909    2.2301 C   0  0  0  0  0  0  0  0  0  0  0  0
   26.2905   12.6498    2.0185 C   0  0  0  0  0  0  0  0  0  0  0  0
   27.1265   12.3571    0.9584 C   0  0  0  0  0  0  0  0  0  0  0  0
   28.0542   11.4854    1.4544 N   0  0  0  0  0  0  0  0  0  0  0  0
   27.7513   11.2648    2.7626 C   0  0  0  0  0  0  0  0  0  0  0  0
   26.6822   11.9309    3.1274 N   0  0  0  0  0  0  0  0  0  0  0  0
  2  1  1  1
  2  3  1  0
  3  4  1  0
  4  5  1  0
  5  6  1  0
  6  7  1  0
  7  8  2  0
  8  9  1  0
  9 10  2  0
 10 11  1  0
 11 12  2  0
 12 13  1  0
 13 14  2  0
  2 15  1  0
 15 16  2  0
 16 17  1  0
 17 18  1  0
 18 19  2  0
 14  6  1  0
 19 15  1  0
 14  9  1  0
M  END
>  <tags>  (72) 
{'openbind_a71ev2a_c1_knitwork_pure', 'fragmenstein_placed'}

>  <distance_score>  (72) 
0.802756

>  <ref_mols>  (72) 
A0486a,A0309a

>  <smiles>  (72) 
C[C@H](NCCn1ncc2ccccc21)c1c[nH]cn1

>  <HIPPO Pose ID>  (72) 
126434

>  <inchikey>  (72) 
FZJDHRNIVCAVDC-UHFFFAOYSA-N

>  <ref_pdb>  (72) 
A1180a

>  <alias>  (72) 
C97404-P9

>  <energy_score>  (72) 
-22.444724

>  <HIPPO Compound ID>  (72) 
97404

$$$$
C132369-P220
     RDKit          3D

 21 23  0  0  0  0  0  0  0  0999 V2000
    9.7150   10.0184   23.1173 C   0  0  0  0  0  0  0  0  0  0  0  0
    8.9044   10.8294   24.0556 C   0  0  0  0  0  0  0  0  0  0  0  0
    7.7504   10.3001   24.5719 N   0  0  0  0  0  0  0  0  0  0  0  0
    7.1632   11.1802   25.4394 C   0  0  0  0  0  0  0  0  0  0  0  0
    6.0146   11.0362   26.2194 C   0  0  0  0  0  0  0  0  0  0  0  0
    5.6124   12.1249   26.9923 C   0  0  0  0  0  0  0  0  0  0  0  0
    6.3341   13.3131   26.9806 C   0  0  0  0  0  0  0  0  0  0  0  0
    7.4950   13.4313   26.2125 C   0  0  0  0  0  0  0  0  0  0  0  0
    7.9331   12.3368   25.4381 C   0  0  0  0  0  0  0  0  0  0  0  0
    9.0899   12.0847   24.6322 C   0  0  0  0  0  0  0  0  0  0  0  0
   10.2409   12.9827   24.5234 C   0  0  0  0  0  0  0  0  0  0  0  0
   10.4662   13.9096   25.2979 O   0  0  0  0  0  0  0  0  0  0  0  0
   11.0932   12.7085   23.4972 O   0  0  0  0  0  0  0  0  0  0  0  0
   10.6863   13.5075   22.3991 C   0  0  0  0  0  0  0  0  0  0  0  0
   11.8581   13.8924   21.4850 C   0  0  0  0  0  0  0  0  0  0  0  0
   11.3057   14.9560   20.6061 C   0  0  0  0  0  0  0  0  0  0  0  0
   10.7379   14.7785   19.3760 C   0  0  0  0  0  0  0  0  0  0  0  0
    9.8349   15.7250   18.9194 C   0  0  0  0  0  0  0  0  0  0  0  0
    9.6164   16.8763   19.6491 C   0  0  0  0  0  0  0  0  0  0  0  0
   10.2330   17.1154   20.7980 N   0  0  0  0  0  0  0  0  0  0  0  0
   11.0775   16.1601   21.2107 C   0  0  0  0  0  0  0  0  0  0  0  0
  1  2  1  0
  2  3  1  0
  3  4  1  0
  4  5  2  0
  5  6  1  0
  6  7  2  0
  7  8  1  0
  8  9  2  0
  9 10  1  0
 10 11  1  0
 11 12  2  0
 11 13  1  0
 13 14  1  0
 14 15  1  0
 15 16  1  0
 16 17  2  0
 17 18  1  0
 18 19  2  0
 19 20  1  0
 20 21  2  0
 10  2  2  0
 21 16  1  0
  9  4  1  0
M  END
>  <tags>  (73) 
{'openbind_a71ev2a_c1_knitwork_pure', 'fragmenstein_placed'}

>  <distance_score>  (73) 
0.901956

>  <ref_mols>  (73) 
A3568a,A2629a

>  <smiles>  (73) 
Cc1[nH]c2ccccc2c1C(=O)OCCc1cccnc1

>  <HIPPO Pose ID>  (73) 
127841

>  <inchikey>  (73) 
GQPALOGPMKZAID-UHFFFAOYSA-N

>  <ref_pdb>  (73) 
A1180a

>  <alias>  (73) 
C132369-P220

>  <energy_score>  (73) 
-4.356648

>  <HIPPO Compound ID>  (73) 
48528

$$$$
C13210-P270
     RDKit          3D

 13 13  0  0  0  0  0  0  0  0999 V2000
    7.1682   15.6474   26.4455 C   0  0  0  0  0  0  0  0  0  0  0  0
    7.8620   15.5161   25.0988 C   0  0  0  0  0  0  0  0  0  0  0  0
    6.8866   15.0997   24.0002 C   0  0  0  0  0  0  0  0  0  0  0  0
    7.6918   14.3293   22.5974 S   0  0  0  0  0  0  0  0  0  0  0  0
    8.4919   15.3302   21.9266 O   0  0  0  0  0  0  0  0  0  0  0  0
    6.7288   13.5336   21.8625 O   0  0  0  0  0  0  0  0  0  0  0  0
    8.8163   13.2547   23.3439 N   0  0  0  0  0  0  0  0  0  0  0  0
    8.1826   12.0504   23.7205 N   0  0  0  0  0  0  0  0  0  0  0  0
    9.0705   10.8989   23.5133 C   0  0  0  0  0  0  0  0  0  0  0  0
    8.4238    9.5660   23.8704 C   0  0  0  0  0  0  0  0  0  0  0  0
    7.3552    9.5967   24.9554 C   0  0  0  0  0  0  0  0  0  0  0  0
    6.8511   10.9381   25.4288 C   0  0  0  0  0  0  0  0  0  0  0  0
    7.7959   12.0723   25.1334 C   0  0  0  0  0  0  0  0  0  0  0  0
  1  2  1  0
  2  3  1  0
  3  4  1  0
  4  5  2  0
  4  6  2  0
  4  7  1  0
  7  8  1  0
  8  9  1  0
  9 10  1  0
 10 11  1  0
 11 12  1  0
 12 13  1  0
 13  8  1  0
M  END
>  <tags>  (74) 
{'openbind_a71ev2a_c1_knitwork_pure', 'fragmenstein_placed'}

>  <distance_score>  (74) 
0.874368

>  <ref_mols>  (74) 
A0719a,A4020a

>  <smiles>  (74) 
CCCS(=O)(=O)NN1CCCCC1

>  <HIPPO Pose ID>  (74) 
127868

>  <inchikey>  (74) 
LDYJYHQEZNWGPU-UHFFFAOYSA-N

>  <ref_pdb>  (74) 
A1180a

>  <alias>  (74) 
C13210-P270

>  <energy_score>  (74) 
-19.79991

>  <HIPPO Compound ID>  (74) 
51900

$$$$
C56215-P205
     RDKit          3D

 12 13  0  0  0  0  0  0  0  0999 V2000
    8.9053   14.1266   25.6408 O   0  0  0  0  0  0  0  0  0  0  0  0
    8.4996   13.2759   24.8428 C   0  0  0  0  0  0  0  0  0  0  0  0
    8.4767   13.4850   23.3427 C   0  0  0  0  0  0  0  0  0  0  0  0
    9.2429   14.7004   22.8466 C   0  0  0  0  0  0  0  0  0  0  0  0
   10.7141   14.4425   22.7180 C   0  0  0  0  0  0  0  0  0  0  0  0
   11.6814   15.0130   23.7113 C   0  0  0  0  0  0  0  0  0  0  0  0
   11.6062   15.5909   22.3247 C   0  0  0  0  0  0  0  0  0  0  0  0
    7.9445   11.9741   25.3762 C   0  0  2  0  0  0  0  0  0  0  0  0
    7.6514   10.8317   24.4471 C   0  0  0  0  0  0  0  0  0  0  0  0
    6.7875    9.9233   25.2993 C   0  0  0  0  0  0  0  0  0  0  0  0
    6.1910   10.7639   26.3433 N   0  0  0  0  0  0  0  0  0  0  0  0
    6.6195   12.1458   26.0862 C   0  0  0  0  0  0  0  0  0  0  0  0
  1  2  2  0
  2  3  1  0
  3  4  1  0
  4  5  1  0
  5  6  1  0
  6  7  1  0
  8  2  1  6
  8  9  1  0
  9 10  1  0
 10 11  1  0
 11 12  1  0
  7  5  1  0
 12  8  1  0
M  END
>  <tags>  (75) 
{'openbind_a71ev2a_c1_knitwork_pure', 'fragmenstein_placed'}

>  <distance_score>  (75) 
0.969902

>  <ref_mols>  (75) 
A3694a,A1779a

>  <smiles>  (75) 
O=C(CCC1CC1)[C@@H]1CCNC1

>  <HIPPO Pose ID>  (75) 
128248

>  <inchikey>  (75) 
KUFKNJXJTDVHJC-UHFFFAOYSA-N

>  <ref_pdb>  (75) 
A1180a

>  <alias>  (75) 
C56215-P205

>  <energy_score>  (75) 
-20.11904

>  <HIPPO Compound ID>  (75) 
96113

$$$$
C118307-P200
     RDKit          3D

 21 23  0  0  0  0  0  0  0  0999 V2000
    8.9555   16.8321   19.4887 C   0  0  0  0  0  0  0  0  0  0  0  0
    9.3961   15.6858   18.8254 C   0  0  0  0  0  0  0  0  0  0  0  0
   10.4288   14.9195   19.3063 C   0  0  0  0  0  0  0  0  0  0  0  0
   10.8987   15.2501   20.5438 C   0  0  0  0  0  0  0  0  0  0  0  0
   11.8695   14.3885   21.2525 C   0  0  0  0  0  0  0  0  0  0  0  0
   11.1176   13.3243   22.0498 C   0  0  0  0  0  0  0  0  0  0  0  0
   10.8675   13.6381   23.4296 N   0  0  0  0  0  0  0  0  0  0  0  0
   10.8735   12.5725   24.3671 C   0  0  0  0  0  0  0  0  0  0  0  0
    9.6893   11.6795   24.3453 C   0  0  0  0  0  0  0  0  0  0  0  0
    9.5176   10.4689   23.7191 C   0  0  0  0  0  0  0  0  0  0  0  0
    8.4644    9.8493   24.3124 O   0  0  0  0  0  0  0  0  0  0  0  0
    7.9840   10.7620   25.1959 C   0  0  0  0  0  0  0  0  0  0  0  0
    8.6899   11.8566   25.2822 N   0  0  0  0  0  0  0  0  0  0  0  0
    9.8283   14.5879   23.7100 C   0  0  0  0  0  0  0  0  0  0  0  0
    8.4156   14.3352   23.3311 C   0  0  0  0  0  0  0  0  0  0  0  0
    7.8108   14.2565   22.0989 C   0  0  0  0  0  0  0  0  0  0  0  0
    6.4676   14.1602   22.2793 O   0  0  0  0  0  0  0  0  0  0  0  0
    6.3187   14.2601   23.6288 C   0  0  0  0  0  0  0  0  0  0  0  0
    7.4361   14.3691   24.3063 N   0  0  0  0  0  0  0  0  0  0  0  0
   10.4255   16.3012   21.2283 N   0  0  0  0  0  0  0  0  0  0  0  0
    9.4730   17.0837   20.7036 C   0  0  0  0  0  0  0  0  0  0  0  0
  1  2  2  0
  2  3  1  0
  3  4  2  0
  4  5  1  0
  5  6  1  0
  6  7  1  0
  7  8  1  0
  8  9  1  0
  9 10  2  0
 10 11  1  0
 11 12  1  0
 12 13  2  0
  7 14  1  0
 14 15  1  0
 15 16  2  0
 16 17  1  0
 17 18  1  0
 18 19  2  0
  4 20  1  0
 20 21  2  0
 21  1  1  0
 13  9  1  0
 19 15  1  0
M  END
>  <tags>  (76) 
{'openbind_a71ev2a_c1_knitwork_pure', 'fragmenstein_placed'}

>  <distance_score>  (76) 
0.73825

>  <ref_mols>  (76) 
A3623a,A3568a

>  <smiles>  (76) 
c1ccc(CCN(Cc2cocn2)Cc2cocn2)nc1

>  <HIPPO Pose ID>  (76) 
129330

>  <inchikey>  (76) 
YFAQFICQNGNQSS-UHFFFAOYSA-N

>  <ref_pdb>  (76) 
A1180a

>  <alias>  (76) 
C118307-P200

>  <energy_score>  (76) 
-26.17015

>  <HIPPO Compound ID>  (76) 
118923

$$$$
C132547-P200
     RDKit          3D

 25 27  0  0  0  0  0  0  0  0999 V2000
    0.3303   12.7757   18.1487 C   0  0  0  0  0  0  0  0  0  0  0  0
    1.8050   12.4966   18.4776 C   0  0  0  0  0  0  0  0  0  0  0  0
    1.9568   11.0419   18.9468 C   0  0  0  0  0  0  0  0  0  0  0  0
    2.6694   12.7400   17.2411 C   0  0  0  0  0  0  0  0  0  0  0  0
    2.2811   13.4079   19.5515 C   0  0  0  0  0  0  0  0  0  0  0  0
    2.0134   14.6815   19.9860 C   0  0  0  0  0  0  0  0  0  0  0  0
    2.9548   15.0713   20.9252 N   0  0  0  0  0  0  0  0  0  0  0  0
    3.7046   13.9833   21.0642 C   0  0  0  0  0  0  0  0  0  0  0  0
    5.0435   13.8317   21.6237 C   0  0  0  0  0  0  0  0  0  0  0  0
    5.5540   12.7970   21.5233 O   0  0  0  0  0  0  0  0  0  0  0  0
    5.5773   15.1439   22.1713 N   0  0  0  0  0  0  0  0  0  0  0  0
    6.8967   15.4996   22.6324 C   0  0  2  0  0  0  0  0  0  0  0  0
    7.8525   14.9149   21.5463 C   0  0  0  0  0  0  0  0  0  0  0  0
    8.8879   15.8145   21.1683 O   0  0  0  0  0  0  0  0  0  0  0  0
    7.2096   15.0664   24.0899 C   0  0  0  0  0  0  0  0  0  0  0  0
    8.3792   14.1297   24.2279 C   0  0  0  0  0  0  0  0  0  0  0  0
    9.6764   14.2501   23.7478 C   0  0  0  0  0  0  0  0  0  0  0  0
   10.1967   12.9900   23.6180 N   0  0  0  0  0  0  0  0  0  0  0  0
    9.3185   12.0930   24.1578 C   0  0  0  0  0  0  0  0  0  0  0  0
    9.3515   10.7122   24.1568 C   0  0  0  0  0  0  0  0  0  0  0  0
    8.3836   10.0952   24.9346 C   0  0  0  0  0  0  0  0  0  0  0  0
    7.3958   10.7868   25.6268 C   0  0  0  0  0  0  0  0  0  0  0  0
    7.2923   12.1547   25.4804 C   0  0  0  0  0  0  0  0  0  0  0  0
    8.2743   12.8147   24.7312 C   0  0  0  0  0  0  0  0  0  0  0  0
    3.3141   12.9393   20.2842 O   0  0  0  0  0  0  0  0  0  0  0  0
  1  2  1  0
  2  3  1  0
  2  4  1  0
  2  5  1  0
  5  6  2  0
  6  7  1  0
  7  8  2  0
  8  9  1  0
  9 10  2  0
  9 11  1  0
 11 12  1  0
 12 13  1  6
 13 14  1  0
 12 15  1  0
 15 16  1  0
 16 17  2  0
 17 18  1  0
 18 19  1  0
 19 20  2  0
 20 21  1  0
 21 22  2  0
 22 23  1  0
 23 24  2  0
  8 25  1  0
 25  5  1  0
 24 16  1  0
 24 19  1  0
M  END
>  <tags>  (77) 
{'openbind_a71ev2a_c1_knitwork_pure', 'fragmenstein_placed'}

>  <distance_score>  (77) 
0.931227

>  <ref_mols>  (77) 
A3623a,A3568a

>  <smiles>  (77) 
CC(C)(C)c1cnc(C(=O)N[C@H](CO)Cc2c[nH]c3ccccc23)o1

>  <HIPPO Pose ID>  (77) 
129392

>  <inchikey>  (77) 
XPFGRKQWKIHVAC-UHFFFAOYSA-N

>  <ref_pdb>  (77) 
A1180a

>  <alias>  (77) 
C132547-P200

>  <energy_score>  (77) 
-2.599994

>  <HIPPO Compound ID>  (77) 
78261

$$$$
C68035-P51
     RDKit          3D

 24 27  0  0  0  0  0  0  0  0999 V2000
   19.3909   13.1624    3.0913 O   0  0  0  0  0  0  0  0  0  0  0  0
   19.6458   14.2595    2.7900 C   0  0  0  0  0  0  0  0  0  0  0  0
   21.0059   14.9805    2.6993 N   0  0  0  0  0  0  0  0  0  0  0  0
   22.3411   14.4784    2.8678 C   0  0  0  0  0  0  0  0  0  0  0  0
   22.8160   13.9082    1.5832 C   0  0  0  0  0  0  0  0  0  0  0  0
   22.2431   14.0174    0.3972 N   0  0  0  0  0  0  0  0  0  0  0  0
   23.0095   13.3371   -0.5193 N   0  0  0  0  0  0  0  0  0  0  0  0
   24.0429   12.8347    0.1176 C   0  0  0  0  0  0  0  0  0  0  0  0
   23.9672   13.1816    1.4393 N   0  0  0  0  0  0  0  0  0  0  0  0
   25.0100   12.9342    2.4112 C   0  0  0  0  0  0  0  0  0  0  0  0
   26.0545   11.9249    1.9264 C   0  0  0  0  0  0  0  0  0  0  0  0
   26.4032   12.1387    0.4516 C   0  0  0  0  0  0  0  0  0  0  0  0
   25.1568   12.0219   -0.4283 C   0  0  0  0  0  0  0  0  0  0  0  0
   18.5415   15.1918    2.4621 C   0  0  0  0  0  0  0  0  0  0  0  0
   18.6059   16.3604    1.7345 C   0  0  0  0  0  0  0  0  0  0  0  0
   17.3647   16.9115    1.6748 O   0  0  0  0  0  0  0  0  0  0  0  0
   16.5630   16.0275    2.3479 C   0  0  0  0  0  0  0  0  0  0  0  0
   15.1474   16.3647    2.4094 C   0  0  0  0  0  0  0  0  0  0  0  0
   14.6663   17.6392    2.0865 C   0  0  0  0  0  0  0  0  0  0  0  0
   13.3025   17.9165    2.1687 C   0  0  0  0  0  0  0  0  0  0  0  0
   12.4493   16.9061    2.5773 C   0  0  0  0  0  0  0  0  0  0  0  0
   12.8615   15.6610    2.9006 N   0  0  0  0  0  0  0  0  0  0  0  0
   14.2002   15.4211    2.7984 C   0  0  0  0  0  0  0  0  0  0  0  0
   17.2152   14.9951    2.8459 N   0  0  0  0  0  0  0  0  0  0  0  0
  1  2  2  0
  2  3  1  0
  3  4  1  0
  4  5  1  0
  5  6  2  0
  6  7  1  0
  7  8  2  0
  8  9  1  0
  9 10  1  0
 10 11  1  0
 11 12  1  0
 12 13  1  0
  2 14  1  0
 14 15  2  0
 15 16  1  0
 16 17  1  0
 17 18  1  0
 18 19  2  0
 19 20  1  0
 20 21  2  0
 21 22  1  0
 22 23  2  0
 17 24  2  0
  9  5  1  0
 24 14  1  0
 13  8  1  0
 23 18  1  0
M  END
>  <tags>  (78) 
{'openbind_a71ev2a_c1_knitwork_pure', 'fragmenstein_placed'}

>  <distance_score>  (78) 
0.470153

>  <ref_mols>  (78) 
A0239a,A3568a

>  <smiles>  (78) 
O=C(NCc1nnc2n1CCCC2)c1coc(-c2cccnc2)n1

>  <HIPPO Pose ID>  (78) 
130153

>  <inchikey>  (78) 
SPKYROZOTIZKDR-UHFFFAOYSA-N

>  <ref_pdb>  (78) 
A1180a

>  <alias>  (78) 
C68035-P51

>  <energy_score>  (78) 
-10.963272

>  <HIPPO Compound ID>  (78) 
64717

$$$$
C64769-P219
     RDKit          3D

 21 24  0  0  0  0  0  0  0  0999 V2000
   12.3874   12.3718   23.7382 O   0  0  0  0  0  0  0  0  0  0  0  0
   11.7166   13.2689   23.4169 C   0  0  0  0  0  0  0  0  0  0  0  0
   10.2053   13.5047   23.6063 N   0  0  0  0  0  0  0  0  0  0  0  0
    9.2269   12.6794   24.1244 C   0  0  0  0  0  0  0  0  0  0  0  0
    9.3679   11.2910   24.0331 C   0  0  0  0  0  0  0  0  0  0  0  0
    8.4857   10.4507   24.7063 C   0  0  0  0  0  0  0  0  0  0  0  0
    7.5196   11.0109   25.5086 C   0  0  0  0  0  0  0  0  0  0  0  0
    7.3770   12.3890   25.5677 C   0  0  0  0  0  0  0  0  0  0  0  0
    8.1721   13.2469   24.8289 C   0  0  0  0  0  0  0  0  0  0  0  0
    6.3300   12.7203   26.5623 C   0  0  0  0  0  0  0  0  0  0  0  0
    5.9805   11.3564   27.1610 C   0  0  0  0  0  0  0  0  0  0  0  0
    6.7551   10.3440   26.4651 N   0  0  0  0  0  0  0  0  0  0  0  0
   12.3308   14.4126   22.7341 C   0  0  0  0  0  0  0  0  0  0  0  0
   13.3985   15.0544   23.3349 C   0  0  0  0  0  0  0  0  0  0  0  0
   13.9147   16.1549   22.6951 C   0  0  0  0  0  0  0  0  0  0  0  0
   13.4652   16.5929   21.5097 N   0  0  0  0  0  0  0  0  0  0  0  0
   12.5071   15.8706   20.8736 C   0  0  0  0  0  0  0  0  0  0  0  0
   12.2190   16.2222   19.4544 C   0  0  0  0  0  0  0  0  0  0  0  0
   12.2970   15.1812   18.3722 C   0  0  0  0  0  0  0  0  0  0  0  0
   13.3952   16.1905   18.5123 C   0  0  0  0  0  0  0  0  0  0  0  0
   11.8801   14.7963   21.4824 C   0  0  0  0  0  0  0  0  0  0  0  0
  1  2  2  0
  2  3  1  0
  3  4  1  0
  4  5  2  0
  5  6  1  0
  6  7  2  0
  7  8  1  0
  8  9  2  0
  8 10  1  0
 10 11  1  0
 11 12  1  0
  2 13  1  0
 13 14  2  0
 14 15  1  0
 15 16  2  0
 16 17  1  0
 17 18  1  0
 18 19  1  0
 19 20  1  0
 17 21  2  0
  9  4  1  0
 21 13  1  0
 12  7  1  0
 20 18  1  0
M  END
>  <tags>  (79) 
{'openbind_a71ev2a_c1_knitwork_pure', 'fragmenstein_placed'}

>  <distance_score>  (79) 
0.771946

>  <ref_mols>  (79) 
A3564a,A1778a

>  <smiles>  (79) 
O=C(Nc1ccc2c(c1)CCN2)c1ccnc(C2CC2)c1

>  <HIPPO Pose ID>  (79) 
130985

>  <inchikey>  (79) 
DYSLDIFRQOYSOW-UHFFFAOYSA-N

>  <ref_pdb>  (79) 
A1180a

>  <alias>  (79) 
C64769-P219

>  <energy_score>  (79) 
-24.938768

>  <HIPPO Compound ID>  (79) 
78532

$$$$
C51427-P138
     RDKit          3D

 23 25  0  0  0  0  0  0  0  0999 V2000
    3.2277   15.3254   25.0969 C   0  0  0  0  0  0  0  0  0  0  0  0
    3.0359   15.5663   23.6032 C   0  0  0  0  0  0  0  0  0  0  0  0
    3.9656   14.7000   22.7417 C   0  0  2  0  0  0  0  0  0  0  0  0
    5.3729   14.9974   22.9516 N   0  0  0  0  0  0  0  0  0  0  0  0
    6.6164   14.1489   22.6908 C   0  0  0  0  0  0  0  0  0  0  0  0
    6.7249   13.1045   22.1948 O   0  0  0  0  0  0  0  0  0  0  0  0
    7.8184   14.7604   23.2638 C   0  0  0  0  0  0  0  0  0  0  0  0
    8.2263   16.0536   23.0447 N   0  0  0  0  0  0  0  0  0  0  0  0
    9.4214   16.0943   23.5913 C   0  0  0  0  0  0  0  0  0  0  0  0
    9.7879   14.9797   24.2765 O   0  0  0  0  0  0  0  0  0  0  0  0
    8.7531   14.1116   24.0633 C   0  0  0  0  0  0  0  0  0  0  0  0
    8.8956   12.7444   24.6589 C   0  0  2  0  0  0  0  0  0  0  0  0
    9.2828   11.7475   23.5695 C   0  0  0  0  0  0  0  0  0  0  0  0
    9.1044   10.2783   23.9156 C   0  0  0  0  0  0  0  0  0  0  0  0
    7.8905   10.0148   24.7887 C   0  0  0  0  0  0  0  0  0  0  0  0
    7.6938   10.9449   25.8950 N   0  0  0  0  0  0  0  0  0  0  0  0
    7.6236   12.3232   25.4070 C   0  0  0  0  0  0  0  0  0  0  0  0
    3.5554   14.5840   21.2730 C   0  0  0  0  0  0  0  0  0  0  0  0
    3.8425   13.3998   20.5757 C   0  0  0  0  0  0  0  0  0  0  0  0
    3.3868   13.2190   19.2724 C   0  0  0  0  0  0  0  0  0  0  0  0
    2.6278   14.2212   18.7015 C   0  0  0  0  0  0  0  0  0  0  0  0
    2.3768   15.3624   19.4502 C   0  0  0  0  0  0  0  0  0  0  0  0
    2.8407   15.5869   20.7055 N   0  0  0  0  0  0  0  0  0  0  0  0
  1  2  1  0
  3  2  1  6
  3  4  1  0
  4  5  1  0
  5  6  2  0
  5  7  1  0
  7  8  1  0
  8  9  2  0
  9 10  1  0
 10 11  1  0
 12 11  1  6
 12 13  1  0
 13 14  1  0
 14 15  1  0
 15 16  1  0
 16 17  1  0
  3 18  1  0
 18 19  2  0
 19 20  1  0
 20 21  2  0
 21 22  1  0
 22 23  2  0
 11  7  2  0
 17 12  1  0
 23 18  1  0
M  END
>  <tags>  (80) 
{'openbind_a71ev2a_c1_knitwork_pure', 'fragmenstein_placed'}

>  <distance_score>  (80) 
0.96796

>  <ref_mols>  (80) 
A3623a,A3054a

>  <smiles>  (80) 
CC[C@H](NC(=O)c1ncoc1[C@@H]1CCCNC1)c1ccccn1

>  <HIPPO Pose ID>  (80) 
131212

>  <inchikey>  (80) 
KPTSUQKOCKVBNL-UHFFFAOYSA-N

>  <ref_pdb>  (80) 
A1180a

>  <alias>  (80) 
C51427-P138

>  <energy_score>  (80) 
-14.513678

>  <HIPPO Compound ID>  (80) 
43009

$$$$
C47239-P208
     RDKit          3D

 19 21  0  0  0  0  0  0  0  0999 V2000
   -5.4121    5.8000    3.3961 O   0  0  0  0  0  0  0  0  0  0  0  0
   -4.6062    5.9082    4.3022 C   0  0  0  0  0  0  0  0  0  0  0  0
   -3.2537    5.6556    4.1738 N   0  0  0  0  0  0  0  0  0  0  0  0
   -2.5324    5.9271    5.3913 C   0  0  1  0  0  0  0  0  0  0  0  0
   -1.6506    7.1522    5.3211 C   0  0  0  0  0  0  0  0  0  0  0  0
   -1.7949    8.1547    4.3517 C   0  0  0  0  0  0  0  0  0  0  0  0
   -0.9538    9.2705    4.3574 C   0  0  0  0  0  0  0  0  0  0  0  0
    0.0160    9.4184    5.3477 C   0  0  0  0  0  0  0  0  0  0  0  0
    0.1528    8.4455    6.3328 C   0  0  0  0  0  0  0  0  0  0  0  0
   -0.6589    7.3159    6.2966 C   0  0  0  0  0  0  0  0  0  0  0  0
   -0.4480    6.3359    7.1912 F   0  0  0  0  0  0  0  0  0  0  0  0
   -3.6591    6.0777    6.4260 C   0  0  0  0  0  0  0  0  0  0  0  0
   -4.8484    6.2831    5.6192 N   0  0  0  0  0  0  0  0  0  0  0  0
   -6.1731    6.4139    6.2218 C   0  0  2  0  0  0  0  0  0  0  0  0
   -6.8938    5.0629    6.3201 C   0  0  0  0  0  0  0  0  0  0  0  0
   -8.2908    5.2392    6.9111 C   0  0  0  0  0  0  0  0  0  0  0  0
   -9.0873    6.3060    6.1612 C   0  0  0  0  0  0  0  0  0  0  0  0
   -8.3795    7.5882    6.1449 N   0  0  0  0  0  0  0  0  0  0  0  0
   -7.0656    7.4462    5.4963 C   0  0  0  0  0  0  0  0  0  0  0  0
  1  2  2  0
  2  3  1  0
  3  4  1  0
  4  5  1  6
  5  6  2  0
  6  7  1  0
  7  8  2  0
  8  9  1  0
  9 10  2  0
 10 11  1  0
  4 12  1  0
 12 13  1  0
 14 13  1  6
 14 15  1  0
 15 16  1  0
 16 17  1  0
 17 18  1  0
 18 19  1  0
 13  2  1  0
 19 14  1  0
 10  5  1  0
M  END
>  <tags>  (81) 
{'openbind_a71ev2a_c1_knitwork_pure', 'fragmenstein_placed'}

>  <distance_score>  (81) 
0.769916

>  <ref_mols>  (81) 
A3706b,A1081b

>  <smiles>  (81) 
O=C1N[C@@H](c2ccccc2F)CN1[C@@H]1CCCNC1

>  <HIPPO Pose ID>  (81) 
131314

>  <inchikey>  (81) 
LHENNTRPFOOADT-UHFFFAOYSA-N

>  <ref_pdb>  (81) 
A1180a

>  <alias>  (81) 
C47239-P208

>  <energy_score>  (81) 
-43.323039

>  <HIPPO Compound ID>  (81) 
45769

$$$$
C46501-P481
     RDKit          3D

 16 17  0  0  0  0  0  0  0  0999 V2000
    6.0905   13.7229    5.1059 N   0  0  0  0  0  0  0  0  0  0  0  0
    6.8733   13.6121    4.2572 C   0  0  0  0  0  0  0  0  0  0  0  0
    7.8391   13.5893    3.2093 C   0  0  0  0  0  0  0  0  0  0  0  0
    8.5883   14.7467    3.0066 C   0  0  0  0  0  0  0  0  0  0  0  0
    9.5233   14.8903    2.0424 N   0  0  0  0  0  0  0  0  0  0  0  0
    9.6619   13.8490    1.1999 C   0  0  0  0  0  0  0  0  0  0  0  0
    8.9615   12.6544    1.3237 C   0  0  0  0  0  0  0  0  0  0  0  0
    8.0564   12.4755    2.3806 C   0  0  0  0  0  0  0  0  0  0  0  0
    7.2985   11.2955    2.5162 N   0  0  0  0  0  0  0  0  0  0  0  0
    7.8445   10.0439    1.9782 C   0  0  0  0  0  0  0  0  0  0  0  0
    7.0277    8.8223    2.4374 C   0  0  2  0  0  0  0  0  0  0  0  0
    7.7302    7.5115    2.0153 C   0  0  0  0  0  0  0  0  0  0  0  0
    7.0279    6.8559    0.8316 C   0  0  0  0  0  0  0  0  0  0  0  0
    5.5522    6.5855    1.1407 C   0  0  0  0  0  0  0  0  0  0  0  0
    4.9437    7.5768    2.0273 N   0  0  0  0  0  0  0  0  0  0  0  0
    5.5794    8.8877    1.9195 C   0  0  0  0  0  0  0  0  0  0  0  0
  1  2  3  0
  2  3  1  0
  3  4  2  0
  4  5  1  0
  5  6  2  0
  6  7  1  0
  7  8  2  0
  8  9  1  0
  9 10  1  0
 11 10  1  6
 11 12  1  0
 12 13  1  0
 13 14  1  0
 14 15  1  0
 15 16  1  0
  8  3  1  0
 16 11  1  0
M  END
>  <tags>  (82) 
{'openbind_a71ev2a_c1_knitwork_pure', 'fragmenstein_placed'}

>  <distance_score>  (82) 
0.832478

>  <ref_mols>  (82) 
A4836a,A0428a

>  <smiles>  (82) 
N#Cc1cnccc1NC[C@@H]1CCCNC1

>  <HIPPO Pose ID>  (82) 
131999

>  <inchikey>  (82) 
DPEGMWUZRPHHNE-UHFFFAOYSA-N

>  <ref_pdb>  (82) 
A1180a

>  <alias>  (82) 
C46501-P481

>  <energy_score>  (82) 
-21.250971

>  <HIPPO Compound ID>  (82) 
48114

$$$$
C51402-P120
     RDKit          3D

 19 19  0  0  0  0  0  0  0  0999 V2000
    6.7498   13.8616   24.8165 C   0  0  0  0  0  0  0  0  0  0  0  0
    7.1339   12.8299   25.7142 O   0  0  0  0  0  0  0  0  0  0  0  0
    7.4534   11.6684   25.0779 C   0  0  0  0  0  0  0  0  0  0  0  0
    8.5906   11.6041   24.2511 C   0  0  0  0  0  0  0  0  0  0  0  0
    9.4989   12.7791   24.0114 C   0  0  0  0  0  0  0  0  0  0  0  0
    8.8975   10.3907   23.6427 C   0  0  0  0  0  0  0  0  0  0  0  0
    8.0735    9.3147   23.8677 C   0  0  0  0  0  0  0  0  0  0  0  0
    6.9744    9.3578   24.6555 N   0  0  0  0  0  0  0  0  0  0  0  0
    6.6852   10.5162   25.2783 C   0  0  0  0  0  0  0  0  0  0  0  0
    5.5512   10.4401   26.0808 N   0  0  0  0  0  0  0  0  0  0  0  0
    5.1664   11.2327   27.3658 C   0  0  0  0  0  0  0  0  0  0  0  0
    5.7086   12.1210   27.8983 O   0  0  0  0  0  0  0  0  0  0  0  0
    3.7975   10.6959   27.8132 C   0  0  0  0  0  0  0  0  0  0  0  0
    3.3821   11.0130   29.2663 C   0  0  1  0  0  0  0  0  0  0  0  0
    3.3973   12.5071   29.6054 C   0  0  0  0  0  0  0  0  0  0  0  0
    1.9736   10.4826   29.5247 C   0  0  0  0  0  0  0  0  0  0  0  0
    1.6285   10.6253   30.8241 F   0  0  0  0  0  0  0  0  0  0  0  0
    1.8673    9.1683   29.2284 F   0  0  0  0  0  0  0  0  0  0  0  0
    1.0538   11.1373   28.7810 F   0  0  0  0  0  0  0  0  0  0  0  0
  1  2  1  0
  2  3  1  0
  3  4  2  0
  4  5  1  0
  4  6  1  0
  6  7  2  0
  7  8  1  0
  8  9  2  0
  9 10  1  0
 10 11  1  0
 11 12  2  0
 11 13  1  0
 13 14  1  0
 14 15  1  6
 14 16  1  0
 16 17  1  0
 16 18  1  0
 16 19  1  0
  9  3  1  0
M  END
>  <tags>  (83) 
{'openbind_a71ev2a_c1_knitwork_pure', 'fragmenstein_placed'}

>  <distance_score>  (83) 
0.991932

>  <ref_mols>  (83) 
A1445a,A3564a

>  <smiles>  (83) 
COc1c(C)ccnc1NC(=O)C[C@@H](C)C(F)(F)F

>  <HIPPO Pose ID>  (83) 
132608

>  <inchikey>  (83) 
JWOBBCBWIOGWLH-UHFFFAOYSA-N

>  <ref_pdb>  (83) 
A1180a

>  <alias>  (83) 
C51402-P120

>  <energy_score>  (83) 
-21.311698

>  <HIPPO Compound ID>  (83) 
50224

$$$$
C51406-P120
     RDKit          3D

 19 19  0  0  0  0  0  0  0  0999 V2000
    2.9927   12.4547   30.0087 C   0  0  0  0  0  0  0  0  0  0  0  0
    3.0464   10.9776   29.6049 C   0  0  2  0  0  0  0  0  0  0  0  0
    3.5367   10.7223   28.1688 C   0  0  0  0  0  0  0  0  0  0  0  0
    4.8416   11.4180   27.7948 C   0  0  0  0  0  0  0  0  0  0  0  0
    5.2507   12.3503   28.3632 O   0  0  0  0  0  0  0  0  0  0  0  0
    5.3698   10.7053   26.5244 N   0  0  0  0  0  0  0  0  0  0  0  0
    6.4062   11.0360   25.6791 C   0  0  0  0  0  0  0  0  0  0  0  0
    7.0064   10.0562   24.9247 C   0  0  0  0  0  0  0  0  0  0  0  0
    8.1108   10.3986   24.1528 C   0  0  0  0  0  0  0  0  0  0  0  0
    8.8556    9.3884   23.4791 C   0  0  0  0  0  0  0  0  0  0  0  0
    9.4638    8.5750   22.9257 N   0  0  0  0  0  0  0  0  0  0  0  0
    8.5306   11.7166   24.0844 C   0  0  0  0  0  0  0  0  0  0  0  0
    7.8495   12.6280   24.8550 C   0  0  0  0  0  0  0  0  0  0  0  0
    8.4450   14.4082   24.8594 Br  0  0  0  0  0  0  0  0  0  0  0  0
    6.8344   12.3037   25.6729 N   0  0  0  0  0  0  0  0  0  0  0  0
    1.6499   10.3939   29.7495 C   0  0  0  0  0  0  0  0  0  0  0  0
    1.2222   10.4652   31.0278 F   0  0  0  0  0  0  0  0  0  0  0  0
    1.6154    9.0936   29.3835 F   0  0  0  0  0  0  0  0  0  0  0  0
    0.7625   11.0541   28.9730 F   0  0  0  0  0  0  0  0  0  0  0  0
  2  1  1  6
  2  3  1  0
  3  4  1  0
  4  5  2  0
  4  6  1  0
  6  7  1  0
  7  8  2  0
  8  9  1  0
  9 10  1  0
 10 11  3  0
  9 12  2  0
 12 13  1  0
 13 14  1  0
 13 15  2  0
  2 16  1  0
 16 17  1  0
 16 18  1  0
 16 19  1  0
 15  7  1  0
M  END
>  <tags>  (84) 
{'openbind_a71ev2a_c1_knitwork_pure', 'fragmenstein_placed'}

>  <distance_score>  (84) 
0.725457

>  <ref_mols>  (84) 
A1445a,A3564a

>  <smiles>  (84) 
C[C@H](CC(=O)Nc1cc(C#N)cc(Br)n1)C(F)(F)F

>  <HIPPO Pose ID>  (84) 
132620

>  <inchikey>  (84) 
FTCITYYSQNDUFP-UHFFFAOYSA-N

>  <ref_pdb>  (84) 
A1180a

>  <alias>  (84) 
C51406-P120

>  <energy_score>  (84) 
-3.578779

>  <HIPPO Compound ID>  (84) 
50761

$$$$
C51421-P120
     RDKit          3D

 18 18  0  0  0  0  0  0  0  0999 V2000
    3.2388   12.5755   29.7008 C   0  0  0  0  0  0  0  0  0  0  0  0
    2.9678   11.3695   28.7925 C   0  0  1  0  0  0  0  0  0  0  0  0
    4.2273   10.5414   28.4807 C   0  0  0  0  0  0  0  0  0  0  0  0
    5.3387   11.3890   27.8362 C   0  0  0  0  0  0  0  0  0  0  0  0
    5.8025   12.2987   28.4062 O   0  0  0  0  0  0  0  0  0  0  0  0
    5.6684   10.8048   26.4305 N   0  0  0  0  0  0  0  0  0  0  0  0
    6.6737   11.1550   25.5077 C   0  0  0  0  0  0  0  0  0  0  0  0
    7.2260   10.1245   24.7488 C   0  0  0  0  0  0  0  0  0  0  0  0
    8.3326   10.3768   23.9461 C   0  0  0  0  0  0  0  0  0  0  0  0
    8.9475    9.4072   23.2246 O   0  0  0  0  0  0  0  0  0  0  0  0
    8.8562   11.6529   23.8901 C   0  0  0  0  0  0  0  0  0  0  0  0
    8.3166   12.6906   24.5408 N   0  0  0  0  0  0  0  0  0  0  0  0
    7.2388   12.4241   25.3233 C   0  0  0  0  0  0  0  0  0  0  0  0
    6.6304   13.8789   25.9747 Cl  0  0  0  0  0  0  0  0  0  0  0  0
    1.8695   10.5333   29.4352 C   0  0  0  0  0  0  0  0  0  0  0  0
    2.1580   10.2014   30.7108 F   0  0  0  0  0  0  0  0  0  0  0  0
    1.6340    9.3914   28.7556 F   0  0  0  0  0  0  0  0  0  0  0  0
    0.7085   11.2285   29.4456 F   0  0  0  0  0  0  0  0  0  0  0  0
  2  1  1  1
  2  3  1  0
  3  4  1  0
  4  5  2  0
  4  6  1  0
  6  7  1  0
  7  8  2  0
  8  9  1  0
  9 10  1  0
  9 11  2  0
 11 12  1  0
 12 13  2  0
 13 14  1  0
  2 15  1  0
 15 16  1  0
 15 17  1  0
 15 18  1  0
 13  7  1  0
M  END
>  <tags>  (85) 
{'openbind_a71ev2a_c1_knitwork_pure', 'fragmenstein_placed'}

>  <distance_score>  (85) 
0.893702

>  <ref_mols>  (85) 
A1445a,A3564a

>  <smiles>  (85) 
C[C@@H](CC(=O)Nc1cc(O)cnc1Cl)C(F)(F)F

>  <HIPPO Pose ID>  (85) 
132634

>  <inchikey>  (85) 
QWVLYQDYSGRLDZ-UHFFFAOYSA-N

>  <ref_pdb>  (85) 
A1180a

>  <alias>  (85) 
C51421-P120

>  <energy_score>  (85) 
-9.535579

>  <HIPPO Compound ID>  (85) 
3682

$$$$
C51187-P481
     RDKit          3D

 20 22  0  0  0  0  0  0  0  0999 V2000
   18.7555    1.4508   21.5091 C   0  0  0  0  0  0  0  0  0  0  0  0
   18.3885    0.0343   21.3126 C   0  0  0  0  0  0  0  0  0  0  0  0
   17.7979   -0.4866   20.2542 N   0  0  0  0  0  0  0  0  0  0  0  0
   17.6964   -1.8459   20.4453 N   0  0  0  0  0  0  0  0  0  0  0  0
   18.2004   -2.1249   21.6271 C   0  0  0  0  0  0  0  0  0  0  0  0
   18.3514   -3.3384   22.3524 C   0  0  0  0  0  0  0  0  0  0  0  0
   18.8337   -3.3068   23.6109 C   0  0  0  0  0  0  0  0  0  0  0  0
   19.2238   -2.0472   24.2404 C   0  0  0  0  0  0  0  0  0  0  0  0
   19.6514   -1.9625   25.6721 C   0  0  0  0  0  0  0  0  0  0  0  0
   19.1124   -1.2719   26.4403 O   0  0  0  0  0  0  0  0  0  0  0  0
   20.8629   -2.9003   25.8490 N   0  0  0  0  0  0  0  0  0  0  0  0
   21.7244   -3.1130   26.9855 C   0  0  0  0  0  0  0  0  0  0  0  0
   22.9662   -2.2145   26.9466 C   0  0  1  0  0  0  0  0  0  0  0  0
   22.6052   -0.7204   27.0471 C   0  0  0  0  0  0  0  0  0  0  0  0
   23.7297    0.1155   27.6609 C   0  0  0  0  0  0  0  0  0  0  0  0
   25.0951   -0.5185   27.4284 C   0  0  0  0  0  0  0  0  0  0  0  0
   25.2099   -1.8649   27.9899 N   0  0  0  0  0  0  0  0  0  0  0  0
   23.9424   -2.5967   28.0663 C   0  0  0  0  0  0  0  0  0  0  0  0
   19.1226   -0.9027   23.5391 C   0  0  0  0  0  0  0  0  0  0  0  0
   18.6190   -0.9540   22.2416 N   0  0  0  0  0  0  0  0  0  0  0  0
  1  2  1  0
  2  3  2  0
  3  4  1  0
  4  5  2  0
  5  6  1  0
  6  7  2  0
  7  8  1  0
  8  9  1  0
  9 10  2  0
  9 11  1  0
 11 12  1  0
 13 12  1  1
 13 14  1  0
 14 15  1  0
 15 16  1  0
 16 17  1  0
 17 18  1  0
  8 19  2  0
 19 20  1  0
 20  2  1  0
 20  5  1  0
 18 13  1  0
M  END
>  <tags>  (86) 
{'openbind_a71ev2a_c1_knitwork_pure', 'fragmenstein_placed'}

>  <distance_score>  (86) 
0.247057

>  <ref_mols>  (86) 
A4836a,A1293a

>  <smiles>  (86) 
Cc1nnc2ccc(C(=O)NC[C@H]3CCCNC3)cn12

>  <HIPPO Pose ID>  (86) 
132831

>  <inchikey>  (86) 
LHSJJHNLOFSIIV-UHFFFAOYSA-N

>  <ref_pdb>  (86) 
A1180a

>  <alias>  (86) 
C51187-P481

>  <energy_score>  (86) 
-16.140233

>  <HIPPO Compound ID>  (86) 
58974

$$$$
C95583-P404
     RDKit          3D

 20 22  0  0  0  0  0  0  0  0999 V2000
   13.1170   15.3970   26.5327 O   0  0  0  0  0  0  0  0  0  0  0  0
   12.0835   15.7059   26.1022 C   0  0  0  0  0  0  0  0  0  0  0  0
   11.5328   15.6094   24.6757 N   0  0  0  0  0  0  0  0  0  0  0  0
   12.1097   15.0164   23.4764 C   0  0  2  0  0  0  0  0  0  0  0  0
   11.9292   15.7950   22.1822 C   0  0  0  0  0  0  0  0  0  0  0  0
   10.7700   15.3130   21.3180 C   0  0  0  0  0  0  0  0  0  0  0  0
    9.6372   14.7901   22.1822 C   0  0  0  0  0  0  0  0  0  0  0  0
   10.0983   13.6663   22.9915 N   0  0  0  0  0  0  0  0  0  0  0  0
    9.1347   12.8297   23.6140 C   0  0  0  0  0  0  0  0  0  0  0  0
    9.3577   11.4616   23.7188 C   0  0  0  0  0  0  0  0  0  0  0  0
    8.4843   10.6715   24.4521 C   0  0  0  0  0  0  0  0  0  0  0  0
    7.4173   11.2813   25.0835 C   0  0  0  0  0  0  0  0  0  0  0  0
    7.1481   12.5990   24.9861 N   0  0  0  0  0  0  0  0  0  0  0  0
    7.9948   13.3379   24.2302 C   0  0  0  0  0  0  0  0  0  0  0  0
   11.3922   13.6730   23.5446 C   0  0  0  0  0  0  0  0  0  0  0  0
   11.8355   12.7993   24.2937 O   0  0  0  0  0  0  0  0  0  0  0  0
   10.9658   16.2080   26.9547 C   0  0  0  0  0  0  0  0  0  0  0  0
   11.0467   16.7777   28.1698 C   0  0  0  0  0  0  0  0  0  0  0  0
    9.5430   16.8613   28.3257 C   0  0  0  0  0  0  0  0  0  0  0  0
    9.4640   16.0861   26.9904 C   0  0  0  0  0  0  0  0  0  0  0  0
  1  2  2  0
  2  3  1  0
  4  3  1  1
  4  5  1  0
  5  6  1  0
  6  7  1  0
  7  8  1  0
  8  9  1  0
  9 10  2  0
 10 11  1  0
 11 12  2  0
 12 13  1  0
 13 14  2  0
  8 15  1  0
 15 16  2  0
  2 17  1  0
 17 18  2  0
 18 19  1  0
 19 20  1  0
 15  4  1  0
 20 17  1  0
 14  9  1  0
M  END
>  <tags>  (87) 
{'openbind_a71ev2a_c1_knitwork_pure', 'fragmenstein_placed'}

>  <distance_score>  (87) 
0.755174

>  <ref_mols>  (87) 
A4563a,A0428a

>  <smiles>  (87) 
O=C(N[C@@H]1CCCN(c2cccnc2)C1=O)C1=CCC1

>  <HIPPO Pose ID>  (87) 
133114

>  <inchikey>  (87) 
CXKCEZSQRXABEZ-UHFFFAOYSA-N

>  <ref_pdb>  (87) 
A1180a

>  <alias>  (87) 
C95583-P404

>  <energy_score>  (87) 
-3.878791

>  <HIPPO Compound ID>  (87) 
55828

$$$$
C53037-P106
     RDKit          3D

 18 20  0  0  0  0  0  0  0  0999 V2000
   13.0248   10.1097   24.8750 O   0  0  0  0  0  0  0  0  0  0  0  0
   12.5442   11.2448   24.8557 C   0  0  0  0  0  0  0  0  0  0  0  0
   13.3701   12.4945   25.0284 C   0  0  0  0  0  0  0  0  0  0  0  0
   14.8401   12.2012   25.3413 C   0  0  0  0  0  0  0  0  0  0  0  0
   15.0354   11.5625   26.6542 N   0  0  0  0  0  0  0  0  0  0  0  0
   16.4572   11.2235   26.8528 C   0  0  0  0  0  0  0  0  0  0  0  0
   17.1131   12.4909   27.3733 C   0  0  0  0  0  0  0  0  0  0  0  0
   15.9904   13.2852   28.0118 C   0  0  0  0  0  0  0  0  0  0  0  0
   14.7482   12.4533   27.7895 C   0  0  0  0  0  0  0  0  0  0  0  0
   11.0797   11.3822   24.6333 C   0  0  0  0  0  0  0  0  0  0  0  0
   10.4091   10.2969   24.0573 C   0  0  0  0  0  0  0  0  0  0  0  0
    9.0220   10.2336   24.0737 C   0  0  0  0  0  0  0  0  0  0  0  0
    8.3574   11.2315   24.7666 C   0  0  0  0  0  0  0  0  0  0  0  0
    7.0543   11.3720   25.1496 N   0  0  0  0  0  0  0  0  0  0  0  0
    6.9330   12.5604   25.8015 C   0  0  0  0  0  0  0  0  0  0  0  0
    8.0954   13.1575   25.9241 N   0  0  0  0  0  0  0  0  0  0  0  0
    8.9906   12.3512   25.2756 C   0  0  0  0  0  0  0  0  0  0  0  0
   10.3775   12.4754   25.1597 C   0  0  0  0  0  0  0  0  0  0  0  0
  1  2  2  0
  2  3  1  0
  3  4  1  0
  4  5  1  0
  5  6  1  0
  6  7  1  0
  7  8  1  0
  8  9  1  0
  2 10  1  0
 10 11  2  0
 11 12  1  0
 12 13  2  0
 13 14  1  0
 14 15  1  0
 15 16  2  0
 16 17  1  0
 17 18  2  0
  9  5  1  0
 18 10  1  0
 17 13  1  0
M  END
>  <tags>  (88) 
{'openbind_a71ev2a_c1_knitwork_pure', 'fragmenstein_placed'}

>  <distance_score>  (88) 
0.997813

>  <ref_mols>  (88) 
A1140a,A4874b

>  <smiles>  (88) 
O=C(CCN1CCCC1)c1ccc2[nH]cnc2c1

>  <HIPPO Pose ID>  (88) 
134343

>  <inchikey>  (88) 
AEAKCWJGPKNEGI-UHFFFAOYSA-N

>  <ref_pdb>  (88) 
A1180a

>  <alias>  (88) 
C53037-P106

>  <energy_score>  (88) 
-30.630904

>  <HIPPO Compound ID>  (88) 
128372

$$$$
C68901-P103
     RDKit          3D

 22 25  0  0  0  0  0  0  0  0999 V2000
   18.0841   -6.5031   22.8888 O   0  0  0  0  0  0  0  0  0  0  0  0
   19.0865   -5.9035   22.9957 C   0  0  0  0  0  0  0  0  0  0  0  0
   19.7671   -4.8980   22.0248 N   0  0  0  0  0  0  0  0  0  0  0  0
   19.4214   -4.5135   20.7446 C   0  0  0  0  0  0  0  0  0  0  0  0
   18.3023   -5.0406   20.1280 C   0  0  0  0  0  0  0  0  0  0  0  0
   17.8308   -4.4821   18.9375 C   0  0  0  0  0  0  0  0  0  0  0  0
   16.5837   -4.8921   18.4600 N   0  0  0  0  0  0  0  0  0  0  0  0
   15.7231   -3.8542   17.8717 C   0  0  0  0  0  0  0  0  0  0  0  0
   14.2984   -4.3752   17.5910 C   0  0  0  0  0  0  0  0  0  0  0  0
   14.2555   -5.6401   16.8353 N   0  0  0  0  0  0  0  0  0  0  0  0
   15.1249   -6.6453   17.4741 C   0  0  0  0  0  0  0  0  0  0  0  0
   16.5767   -6.1707   17.7263 C   0  0  0  0  0  0  0  0  0  0  0  0
   18.6005   -3.4844   18.3515 C   0  0  0  0  0  0  0  0  0  0  0  0
   19.7569   -3.0735   18.9960 C   0  0  0  0  0  0  0  0  0  0  0  0
   20.1780   -3.5520   20.1892 N   0  0  0  0  0  0  0  0  0  0  0  0
   20.0177   -5.9664   24.2851 C   0  0  1  0  0  0  0  0  0  0  0  0
   20.1999   -4.5965   24.9030 N   0  0  0  0  0  0  0  0  0  0  0  0
   19.2267   -4.9603   25.9675 C   0  0  0  0  0  0  0  0  0  0  0  0
   19.4602   -6.4033   25.6141 C   0  0  0  0  0  0  0  0  0  0  0  0
   18.3289   -7.3894   25.7456 C   0  0  0  0  0  0  0  0  0  0  0  0
   18.9962   -7.8425   27.0703 C   0  0  0  0  0  0  0  0  0  0  0  0
   20.3216   -7.2292   26.5485 C   0  0  0  0  0  0  0  0  0  0  0  0
  1  2  2  0
  2  3  1  0
  3  4  1  0
  4  5  2  0
  5  6  1  0
  6  7  1  0
  7  8  1  0
  8  9  1  0
  9 10  1  0
 10 11  1  0
 11 12  1  0
  6 13  2  0
 13 14  1  0
 14 15  2  0
 16  2  1  6
 16 17  1  0
 17 18  1  0
 18 19  1  0
 19 20  1  0
 20 21  1  0
 21 22  1  0
 15  4  1  0
 19 16  1  0
 12  7  1  0
 22 19  1  0
M  END
>  <tags>  (89) 
{'openbind_a71ev2a_c1_knitwork_pure', 'fragmenstein_placed'}

>  <distance_score>  (89) 
0.573733

>  <ref_mols>  (89) 
A0469a,A1105b

>  <smiles>  (89) 
O=C(Nc1cc(N2CCNCC2)ccn1)[C@H]1NCC12CCC2

>  <HIPPO Pose ID>  (89) 
134680

>  <inchikey>  (89) 
AAOYCWPUIVHARW-UHFFFAOYSA-N

>  <ref_pdb>  (89) 
A1180a

>  <alias>  (89) 
C68901-P103

>  <energy_score>  (89) 
-42.020877

>  <HIPPO Compound ID>  (89) 
73290

$$$$
C11630-P405
     RDKit          3D

  9  9  0  0  0  0  0  0  0  0999 V2000
    6.2870   14.7672   24.0628 C   0  0  0  0  0  0  0  0  0  0  0  0
    7.3379   14.5862   25.1419 C   0  0  0  0  0  0  0  0  0  0  0  0
    8.4211   13.6271   24.6902 C   0  0  0  0  0  0  0  0  0  0  0  0
    9.4763   14.0611   24.2292 O   0  0  0  0  0  0  0  0  0  0  0  0
    8.1883   12.1947   24.8106 C   0  0  0  0  0  0  0  0  0  0  0  0
    7.1027   11.4836   25.3651 C   0  0  0  0  0  0  0  0  0  0  0  0
    7.2657   10.1583   25.3140 N   0  0  0  0  0  0  0  0  0  0  0  0
    8.4635   10.0111   24.7068 N   0  0  0  0  0  0  0  0  0  0  0  0
    9.0420   11.2000   24.3804 C   0  0  0  0  0  0  0  0  0  0  0  0
  1  2  1  0
  2  3  1  0
  3  4  2  0
  3  5  1  0
  5  6  1  0
  6  7  2  0
  7  8  1  0
  8  9  1  0
  9  5  2  0
M  END
>  <tags>  (90) 
{'openbind_a71ev2a_c1_knitwork_pure', 'fragmenstein_placed'}

>  <distance_score>  (90) 
0.676458

>  <ref_mols>  (90) 
A0556a,A4570a

>  <smiles>  (90) 
CCC(=O)c1cn[nH]c1

>  <HIPPO Pose ID>  (90) 
135376

>  <inchikey>  (90) 
PYKGBZNJSJEWFO-UHFFFAOYSA-N

>  <ref_pdb>  (90) 
A1180a

>  <alias>  (90) 
C11630-P405

>  <energy_score>  (90) 
-14.541996

>  <HIPPO Compound ID>  (90) 
46480

$$$$
C45658-P207
     RDKit          3D

 16 18  0  0  0  0  0  0  0  0999 V2000
    7.2558   14.6040   22.9767 C   0  0  0  0  0  0  0  0  0  0  0  0
    6.8421   13.5240   23.6396 N   0  0  0  0  0  0  0  0  0  0  0  0
    7.9029   13.1878   24.3824 N   0  0  0  0  0  0  0  0  0  0  0  0
    8.0850   11.8278   24.8218 C   0  0  0  0  0  0  0  0  0  0  0  0
    6.8479   11.1368   25.3539 C   0  0  0  0  0  0  0  0  0  0  0  0
    7.0484    9.6730   25.0249 C   0  0  0  0  0  0  0  0  0  0  0  0
    8.2050    9.5517   24.0467 C   0  0  0  0  0  0  0  0  0  0  0  0
    8.6139   10.9595   23.6945 C   0  0  0  0  0  0  0  0  0  0  0  0
    8.9108   14.0999   24.3348 C   0  0  0  0  0  0  0  0  0  0  0  0
    8.5800   14.9661   23.3165 C   0  0  0  0  0  0  0  0  0  0  0  0
    9.4072   16.0585   22.7230 C   0  0  1  0  0  0  0  0  0  0  0  0
   10.8595   16.0737   23.2149 C   0  0  0  0  0  0  0  0  0  0  0  0
   11.7173   15.0120   22.5301 C   0  0  0  0  0  0  0  0  0  0  0  0
   11.6199   15.1425   21.0134 C   0  0  0  0  0  0  0  0  0  0  0  0
   10.2310   15.0628   20.5702 N   0  0  0  0  0  0  0  0  0  0  0  0
    9.4017   16.1001   21.1835 C   0  0  0  0  0  0  0  0  0  0  0  0
  1  2  2  0
  2  3  1  0
  3  4  1  0
  4  5  1  0
  5  6  1  0
  6  7  1  0
  7  8  1  0
  3  9  1  0
  9 10  2  0
 11 10  1  6
 11 12  1  0
 12 13  1  0
 13 14  1  0
 14 15  1  0
 15 16  1  0
 10  1  1  0
 16 11  1  0
  8  4  1  0
M  END
>  <tags>  (91) 
{'openbind_a71ev2a_c1_knitwork_pure', 'fragmenstein_placed'}

>  <distance_score>  (91) 
0.877346

>  <ref_mols>  (91) 
A0556a,A3706a

>  <smiles>  (91) 
c1nn(C2CCCC2)cc1[C@H]1CCCNC1

>  <HIPPO Pose ID>  (91) 
135563

>  <inchikey>  (91) 
PWXDIHDWBIALIW-UHFFFAOYSA-N

>  <ref_pdb>  (91) 
A1180a

>  <alias>  (91) 
C45658-P207

>  <energy_score>  (91) 
-28.729123

>  <HIPPO Compound ID>  (91) 
47320

$$$$
C55769-P616
     RDKit          3D

 17 19  0  0  0  0  0  0  0  0999 V2000
    0.3519   12.5751   20.3030 C   0  0  0  0  0  0  0  0  0  0  0  0
    0.8830   12.8355   21.4956 N   0  0  0  0  0  0  0  0  0  0  0  0
    1.0421   14.1736   21.5041 N   0  0  0  0  0  0  0  0  0  0  0  0
    1.5186   14.8661   22.7044 C   0  0  1  0  0  0  0  0  0  0  0  0
    0.4047   15.7345   23.3215 C   0  0  0  0  0  0  0  0  0  0  0  0
    0.7227   16.2233   24.7322 C   0  0  0  0  0  0  0  0  0  0  0  0
    1.2628   15.1007   25.5969 C   0  0  0  0  0  0  0  0  0  0  0  0
    2.4264   14.5576   24.9816 O   0  0  0  0  0  0  0  0  0  0  0  0
    2.1117   13.9033   23.7450 C   0  0  0  0  0  0  0  0  0  0  0  0
    0.5775   14.7561   20.3543 C   0  0  0  0  0  0  0  0  0  0  0  0
    0.0636   13.7426   19.5656 C   0  0  0  0  0  0  0  0  0  0  0  0
   -0.6988   13.7986   18.2705 C   0  0  1  0  0  0  0  0  0  0  0  0
   -0.9293   15.2159   17.7329 C   0  0  0  0  0  0  0  0  0  0  0  0
   -1.3300   15.2371   16.2564 C   0  0  0  0  0  0  0  0  0  0  0  0
   -1.8897   13.9001   15.7883 C   0  0  0  0  0  0  0  0  0  0  0  0
   -0.9251   12.8150   15.9450 N   0  0  0  0  0  0  0  0  0  0  0  0
   -0.1021   12.9106   17.1632 C   0  0  0  0  0  0  0  0  0  0  0  0
  1  2  2  0
  2  3  1  0
  4  3  1  6
  4  5  1  0
  5  6  1  0
  6  7  1  0
  7  8  1  0
  8  9  1  0
  3 10  1  0
 10 11  2  0
 12 11  1  1
 12 13  1  0
 13 14  1  0
 14 15  1  0
 15 16  1  0
 16 17  1  0
 11  1  1  0
 17 12  1  0
  9  4  1  0
M  END
>  <tags>  (92) 
{'openbind_a71ev2a_c1_knitwork_pure', 'fragmenstein_placed'}

>  <distance_score>  (92) 
0.820886

>  <ref_mols>  (92) 
A0473a,A5424b

>  <smiles>  (92) 
c1nn([C@H]2CCCOC2)cc1[C@H]1CCCNC1

>  <HIPPO Pose ID>  (92) 
136144

>  <inchikey>  (92) 
FUQCTTAKZLEMGE-UHFFFAOYSA-N

>  <ref_pdb>  (92) 
A1180a

>  <alias>  (92) 
C55769-P616

>  <energy_score>  (92) 
-30.277529

>  <HIPPO Compound ID>  (92) 
67457

$$$$
C45903-P109
     RDKit          3D

 21 23  0  0  0  0  0  0  0  0999 V2000
   24.6719   16.3545   23.7970 O   0  0  0  0  0  0  0  0  0  0  0  0
   24.0725   17.6402   23.5852 C   0  0  2  0  0  0  0  0  0  0  0  0
   25.0518   18.4667   22.7449 C   0  0  0  0  0  0  0  0  0  0  0  0
   24.3316   19.3979   21.7751 C   0  0  0  0  0  0  0  0  0  0  0  0
   25.2496   19.9853   20.8212 N   0  0  0  0  0  0  0  0  0  0  0  0
   26.0888   21.0436   21.0897 C   0  0  0  0  0  0  0  0  0  0  0  0
   25.7355   22.0645   21.9318 C   0  0  0  0  0  0  0  0  0  0  0  0
   26.6358   23.0873   22.0361 C   0  0  0  0  0  0  0  0  0  0  0  0
   27.7974   23.1258   21.3697 N   0  0  0  0  0  0  0  0  0  0  0  0
   28.0805   22.1025   20.5438 C   0  0  0  0  0  0  0  0  0  0  0  0
   29.2399   22.1859   19.7532 N   0  0  0  0  0  0  0  0  0  0  0  0
   29.8084   20.8839   19.4197 C   0  0  0  0  0  0  0  0  0  0  0  0
   30.9076   21.0312   18.3685 C   0  0  0  0  0  0  0  0  0  0  0  0
   31.9658   22.0317   18.8166 C   0  0  0  0  0  0  0  0  0  0  0  0
   31.3151   23.3629   19.1740 C   0  0  0  0  0  0  0  0  0  0  0  0
   30.2005   23.1902   20.2084 C   0  0  0  0  0  0  0  0  0  0  0  0
   27.2438   21.0559   20.3988 N   0  0  0  0  0  0  0  0  0  0  0  0
   23.7095   18.1986   24.9650 C   0  0  0  0  0  0  0  0  0  0  0  0
   24.8271   18.6239   25.9501 C   0  0  0  0  0  0  0  0  0  0  0  0
   24.4832   20.0945   25.6484 C   0  0  0  0  0  0  0  0  0  0  0  0
   23.1159   19.6211   25.1265 C   0  0  0  0  0  0  0  0  0  0  0  0
  2  1  1  1
  2  3  1  0
  3  4  1  0
  4  5  1  0
  5  6  1  0
  6  7  2  0
  7  8  1  0
  8  9  2  0
  9 10  1  0
 10 11  1  0
 11 12  1  0
 12 13  1  0
 13 14  1  0
 14 15  1  0
 15 16  1  0
 10 17  2  0
  2 18  1  0
 18 19  1  0
 19 20  1  0
 20 21  1  0
 17  6  1  0
 21 18  1  0
 16 11  1  0
M  END
>  <tags>  (93) 
{'openbind_a71ev2a_c1_knitwork_pure', 'fragmenstein_placed'}

>  <distance_score>  (93) 
0.756074

>  <ref_mols>  (93) 
A4368a,A1146a,A4943a

>  <smiles>  (93) 
O[C@H](CCNc1ccnc(N2CCCCC2)n1)C1CCC1

>  <HIPPO Pose ID>  (93) 
136296

>  <inchikey>  (93) 
MXEULFHAOAPIGP-UHFFFAOYSA-N

>  <ref_pdb>  (93) 
A1180a

>  <alias>  (93) 
C45903-P109

>  <energy_score>  (93) 
-73.71406

>  <HIPPO Compound ID>  (93) 
46417

$$$$
C45903-P535
     RDKit          3D

 21 23  0  0  0  0  0  0  0  0999 V2000
   25.3133   17.2625   26.4001 O   0  0  0  0  0  0  0  0  0  0  0  0
   24.6415   18.0050   25.3716 C   0  0  1  0  0  0  0  0  0  0  0  0
   25.5748   18.0498   24.1611 C   0  0  0  0  0  0  0  0  0  0  0  0
   25.3883   19.2955   23.2959 C   0  0  0  0  0  0  0  0  0  0  0  0
   26.3114   19.2530   22.1698 N   0  0  0  0  0  0  0  0  0  0  0  0
   26.6111   20.4501   21.5222 C   0  0  0  0  0  0  0  0  0  0  0  0
   25.6762   21.4259   21.2988 C   0  0  0  0  0  0  0  0  0  0  0  0
   26.1590   22.5899   20.7680 C   0  0  0  0  0  0  0  0  0  0  0  0
   27.4471   22.7863   20.4429 N   0  0  0  0  0  0  0  0  0  0  0  0
   28.2906   21.7534   20.5959 C   0  0  0  0  0  0  0  0  0  0  0  0
   29.6416   21.9157   20.2292 N   0  0  0  0  0  0  0  0  0  0  0  0
   30.2507   20.6650   19.7722 C   0  0  0  0  0  0  0  0  0  0  0  0
   31.7437   20.8469   19.5060 C   0  0  0  0  0  0  0  0  0  0  0  0
   32.0077   22.0217   18.5739 C   0  0  0  0  0  0  0  0  0  0  0  0
   31.3649   23.2846   19.1336 C   0  0  0  0  0  0  0  0  0  0  0  0
   29.8693   23.0858   19.3803 C   0  0  0  0  0  0  0  0  0  0  0  0
   27.8887   20.5881   21.1276 N   0  0  0  0  0  0  0  0  0  0  0  0
   23.3317   17.2944   25.0478 C   0  0  0  0  0  0  0  0  0  0  0  0
   22.2531   17.3014   26.1700 C   0  0  0  0  0  0  0  0  0  0  0  0
   21.1971   17.3685   25.0509 C   0  0  0  0  0  0  0  0  0  0  0  0
   22.2781   18.0350   24.1766 C   0  0  0  0  0  0  0  0  0  0  0  0
  2  1  1  1
  2  3  1  0
  3  4  1  0
  4  5  1  0
  5  6  1  0
  6  7  2  0
  7  8  1  0
  8  9  2  0
  9 10  1  0
 10 11  1  0
 11 12  1  0
 12 13  1  0
 13 14  1  0
 14 15  1  0
 15 16  1  0
 10 17  2  0
  2 18  1  0
 18 19  1  0
 19 20  1  0
 20 21  1  0
 17  6  1  0
 21 18  1  0
 16 11  1  0
M  END
>  <tags>  (94) 
{'openbind_a71ev2a_c1_knitwork_pure', 'fragmenstein_placed'}

>  <distance_score>  (94) 
0.759757

>  <ref_mols>  (94) 
A1146a,A4943a

>  <smiles>  (94) 
O[C@@H](CCNc1ccnc(N2CCCCC2)n1)C1CCC1

>  <HIPPO Pose ID>  (94) 
136297

>  <inchikey>  (94) 
ZLOLAODFQAPVFD-UHFFFAOYSA-N

>  <ref_pdb>  (94) 
A1180a

>  <alias>  (94) 
C45903-P535

>  <energy_score>  (94) 
-80.828251

>  <HIPPO Compound ID>  (94) 
46917

$$$$
C66335-P153
     RDKit          3D

 20 22  0  0  0  0  0  0  0  0999 V2000
    6.6622   14.2840   22.9624 C   0  0  0  0  0  0  0  0  0  0  0  0
    7.6750   15.0061   23.6495 O   0  0  0  0  0  0  0  0  0  0  0  0
    8.9330   14.2358   23.6409 N   0  0  0  0  0  0  0  0  0  0  0  0
    9.1071   13.4622   24.9145 C   0  0  0  0  0  0  0  0  0  0  0  0
    9.6272   13.7665   25.9262 O   0  0  0  0  0  0  0  0  0  0  0  0
    8.5430   12.0930   24.8515 C   0  0  0  0  0  0  0  0  0  0  0  0
    9.0633   11.1244   24.0064 C   0  0  0  0  0  0  0  0  0  0  0  0
    8.6435    9.8221   24.2202 C   0  0  0  0  0  0  0  0  0  0  0  0
    7.7469    9.4552   25.1773 N   0  0  0  0  0  0  0  0  0  0  0  0
    7.2240   10.4117   25.9812 C   0  0  0  0  0  0  0  0  0  0  0  0
    6.2923   10.0206   27.1089 C   0  0  0  0  0  0  0  0  0  0  0  0
    4.9712   10.7301   27.2504 C   0  0  0  0  0  0  0  0  0  0  0  0
    5.0168    9.2727   26.8853 C   0  0  0  0  0  0  0  0  0  0  0  0
    7.6165   11.7386   25.8340 C   0  0  0  0  0  0  0  0  0  0  0  0
    9.4537   15.5879   23.2351 C   0  0  0  0  0  0  0  0  0  0  0  0
   10.9377   15.6790   23.6443 C   0  0  0  0  0  0  0  0  0  0  0  0
   11.8561   14.8958   22.7297 C   0  0  0  0  0  0  0  0  0  0  0  0
   11.7117   15.3627   21.3609 N   0  0  0  0  0  0  0  0  0  0  0  0
   10.3523   15.1398   20.8784 C   0  0  0  0  0  0  0  0  0  0  0  0
    9.3387   15.9013   21.7254 C   0  0  0  0  0  0  0  0  0  0  0  0
  1  2  1  0
  2  3  1  0
  3  4  1  0
  4  5  2  0
  4  6  1  0
  6  7  2  0
  7  8  1  0
  8  9  2  0
  9 10  1  0
 10 11  1  0
 11 12  1  0
 12 13  1  0
 10 14  2  0
  3 15  1  0
 15 16  1  0
 16 17  1  0
 17 18  1  0
 18 19  1  0
 19 20  1  0
 14  6  1  0
 20 15  1  0
 13 11  1  0
M  END
>  <tags>  (95) 
{'openbind_a71ev2a_c1_knitwork_pure', 'fragmenstein_placed'}

>  <distance_score>  (95) 
0.82253

>  <ref_mols>  (95) 
A3207a,A0875a

>  <smiles>  (95) 
CON(C(=O)c1ccnc(C2CC2)c1)C1CCNCC1

>  <HIPPO Pose ID>  (95) 
137421

>  <inchikey>  (95) 
ZSCBHMTXZYVXEQ-UHFFFAOYSA-N

>  <ref_pdb>  (95) 
A1180a

>  <alias>  (95) 
C66335-P153

>  <energy_score>  (95) 
-4.863834

>  <HIPPO Compound ID>  (95) 
46631

$$$$
C57914-P234
     RDKit          3D

 22 23  0  0  0  0  0  0  0  0999 V2000
    3.7728   12.7320   17.5814 C   0  0  0  0  0  0  0  0  0  0  0  0
    2.6909   12.5428   18.6424 C   0  0  0  0  0  0  0  0  0  0  0  0
    1.3036   12.6375   17.9848 C   0  0  0  0  0  0  0  0  0  0  0  0
    2.8198   11.1803   19.3406 C   0  0  0  0  0  0  0  0  0  0  0  0
    2.8525   13.6473   19.6259 C   0  0  0  0  0  0  0  0  0  0  0  0
    2.3545   14.9236   19.6989 C   0  0  0  0  0  0  0  0  0  0  0  0
    2.9051   15.5720   20.7658 N   0  0  0  0  0  0  0  0  0  0  0  0
    3.6529   14.6548   21.3456 C   0  0  0  0  0  0  0  0  0  0  0  0
    4.3100   14.7549   22.6646 C   0  0  0  0  0  0  0  0  0  0  0  0
    5.6129   15.5298   22.6574 C   0  0  0  0  0  0  0  0  0  0  0  0
    6.8354   14.6132   22.6380 C   0  0  0  0  0  0  0  0  0  0  0  0
    6.8773   13.5776   22.0938 O   0  0  0  0  0  0  0  0  0  0  0  0
    7.8970   15.3312   23.5258 N   0  0  0  0  0  0  0  0  0  0  0  0
    9.2550   14.9637   23.8435 C   0  0  0  0  0  0  0  0  0  0  0  0
    9.6355   13.5072   23.6132 C   0  0  0  0  0  0  0  0  0  0  0  0
    8.9260   12.4669   24.3308 N   0  0  0  0  0  0  0  0  0  0  0  0
    8.9895   11.1376   23.7996 C   0  0  0  0  0  0  0  0  0  0  0  0
    8.1775   10.3186   24.7514 C   0  0  0  0  0  0  0  0  0  0  0  0
    7.2379   11.2819   25.4334 C   0  0  0  0  0  0  0  0  0  0  0  0
    7.8999   12.6172   25.2509 C   0  0  0  0  0  0  0  0  0  0  0  0
    7.5543   13.6234   25.8495 O   0  0  0  0  0  0  0  0  0  0  0  0
    3.7037   13.4649   20.6817 O   0  0  0  0  0  0  0  0  0  0  0  0
  1  2  1  0
  2  3  1  0
  2  4  1  0
  2  5  1  0
  5  6  2  0
  6  7  1  0
  7  8  2  0
  8  9  1  0
  9 10  1  0
 10 11  1  0
 11 12  2  0
 11 13  1  0
 13 14  1  0
 14 15  1  0
 15 16  1  0
 16 17  1  0
 17 18  1  0
 18 19  1  0
 19 20  1  0
 20 21  2  0
  8 22  1  0
 22  5  1  0
 20 16  1  0
M  END
>  <tags>  (96) 
{'openbind_a71ev2a_c1_knitwork_pure', 'fragmenstein_placed'}

>  <distance_score>  (96) 
0.970691

>  <ref_mols>  (96) 
A3623a,A3895a

>  <smiles>  (96) 
CC(C)(C)c1cnc(CCC(=O)NCCN2CCCC2=O)o1

>  <HIPPO Pose ID>  (96) 
138207

>  <inchikey>  (96) 
KBLKPVYLXZHJGK-UHFFFAOYSA-N

>  <ref_pdb>  (96) 
A3890a

>  <alias>  (96) 
C57914-P234

>  <energy_score>  (96) 
-27.688787

>  <HIPPO Compound ID>  (96) 
50844

$$$$
C57919-P234
     RDKit          3D

 22 23  0  0  0  0  0  0  0  0999 V2000
    2.7912   11.1731   19.3406 C   0  0  0  0  0  0  0  0  0  0  0  0
    2.7178   12.5302   18.6214 C   0  0  0  0  0  0  0  0  0  0  0  0
    1.4018   12.6148   17.8357 C   0  0  0  0  0  0  0  0  0  0  0  0
    3.8975   12.7105   17.6681 C   0  0  0  0  0  0  0  0  0  0  0  0
    2.7799   13.6410   19.6084 C   0  0  0  0  0  0  0  0  0  0  0  0
    2.3072   14.9282   19.6233 C   0  0  0  0  0  0  0  0  0  0  0  0
    2.7498   15.5705   20.7437 N   0  0  0  0  0  0  0  0  0  0  0  0
    3.3835   14.6313   21.4195 C   0  0  0  0  0  0  0  0  0  0  0  0
    3.8469   14.6843   22.8232 C   0  0  0  0  0  0  0  0  0  0  0  0
    5.2247   15.0618   22.9432 N   0  0  0  0  0  0  0  0  0  0  0  0
    6.5090   14.2988   22.5507 C   0  0  0  0  0  0  0  0  0  0  0  0
    6.6383   13.3043   22.0125 O   0  0  0  0  0  0  0  0  0  0  0  0
    7.5627   15.2324   23.1937 N   0  0  0  0  0  0  0  0  0  0  0  0
    8.9802   15.0555   23.3718 C   0  0  0  0  0  0  0  0  0  0  0  0
    9.5520   13.6652   23.0942 C   0  0  0  0  0  0  0  0  0  0  0  0
    8.9987   12.5065   23.7730 N   0  0  0  0  0  0  0  0  0  0  0  0
    9.5460   11.2175   23.4724 C   0  0  0  0  0  0  0  0  0  0  0  0
    8.6695   10.2262   24.1781 C   0  0  0  0  0  0  0  0  0  0  0  0
    7.7680   11.0283   25.0926 C   0  0  0  0  0  0  0  0  0  0  0  0
    8.1062   12.4683   24.8264 C   0  0  0  0  0  0  0  0  0  0  0  0
    7.6626   13.3949   25.4868 O   0  0  0  0  0  0  0  0  0  0  0  0
    3.4815   13.4389   20.7626 O   0  0  0  0  0  0  0  0  0  0  0  0
  1  2  1  0
  2  3  1  0
  2  4  1  0
  2  5  1  0
  5  6  2  0
  6  7  1  0
  7  8  2  0
  8  9  1  0
  9 10  1  0
 10 11  1  0
 11 12  2  0
 11 13  1  0
 13 14  1  0
 14 15  1  0
 15 16  1  0
 16 17  1  0
 17 18  1  0
 18 19  1  0
 19 20  1  0
 20 21  2  0
  8 22  1  0
 22  5  1  0
 20 16  1  0
M  END
>  <tags>  (97) 
{'openbind_a71ev2a_c1_knitwork_pure', 'fragmenstein_placed'}

>  <distance_score>  (97) 
0.979137

>  <ref_mols>  (97) 
A3623a,A3895a

>  <smiles>  (97) 
CC(C)(C)c1cnc(CNC(=O)NCCN2CCCC2=O)o1

>  <HIPPO Pose ID>  (97) 
138208

>  <inchikey>  (97) 
DVJLCXBUKZNXHF-UHFFFAOYSA-N

>  <ref_pdb>  (97) 
A3890a

>  <alias>  (97) 
C57919-P234

>  <energy_score>  (97) 
-8.616547

>  <HIPPO Compound ID>  (97) 
68883

$$$$
C45662-P439
     RDKit          3D

 22 24  0  0  0  0  0  0  0  0999 V2000
    4.6190   15.1279    3.8385 O   0  0  0  0  0  0  0  0  0  0  0  0
    4.5905   13.9592    3.8168 C   0  0  0  0  0  0  0  0  0  0  0  0
    5.6939   12.9166    4.1676 N   0  0  0  0  0  0  0  0  0  0  0  0
    7.1860   13.1243    4.7726 S   0  0  0  0  0  0  0  0  0  0  0  0
    7.6549   11.8009    5.1102 O   0  0  0  0  0  0  0  0  0  0  0  0
    7.1364   14.1297    5.8178 O   0  0  0  0  0  0  0  0  0  0  0  0
    8.1832   13.7365    3.4327 C   0  0  2  0  0  0  0  0  0  0  0  0
    7.7210   15.0649    2.8603 C   0  0  0  0  0  0  0  0  0  0  0  0
    8.7593   15.6026    1.8745 C   0  0  0  0  0  0  0  0  0  0  0  0
    9.6490   14.5041    1.2748 C   0  0  0  0  0  0  0  0  0  0  0  0
    8.9180   13.2588    1.0803 N   0  0  0  0  0  0  0  0  0  0  0  0
    8.3702   12.6979    2.3270 C   0  0  0  0  0  0  0  0  0  0  0  0
    3.3380   13.2801    3.4860 C   0  0  0  0  0  0  0  0  0  0  0  0
    2.1908   13.8748    2.9084 C   0  0  0  0  0  0  0  0  0  0  0  0
    1.1709   13.0251    2.7755 N   0  0  0  0  0  0  0  0  0  0  0  0
    1.6390   11.8742    3.2930 N   0  0  0  0  0  0  0  0  0  0  0  0
    0.7988   10.6912    3.4191 C   0  0  0  0  0  0  0  0  0  0  0  0
   -0.1239   10.4397    2.2246 C   0  0  0  0  0  0  0  0  0  0  0  0
   -1.4490   11.1251    2.5625 C   0  0  0  0  0  0  0  0  0  0  0  0
   -1.3961   11.4804    4.0468 C   0  0  0  0  0  0  0  0  0  0  0  0
   -0.1655   10.7741    4.6011 C   0  0  0  0  0  0  0  0  0  0  0  0
    2.9419   11.9738    3.7069 C   0  0  0  0  0  0  0  0  0  0  0  0
  1  2  2  0
  2  3  1  0
  3  4  1  0
  4  5  2  0
  4  6  2  0
  7  4  1  1
  7  8  1  0
  8  9  1  0
  9 10  1  0
 10 11  1  0
 11 12  1  0
  2 13  1  0
 13 14  1  0
 14 15  2  0
 15 16  1  0
 16 17  1  0
 17 18  1  0
 18 19  1  0
 19 20  1  0
 20 21  1  0
 16 22  1  0
 12  7  1  0
 22 13  2  0
 21 17  1  0
M  END
>  <tags>  (98) 
{'openbind_a71ev2a_c1_knitwork_pure', 'fragmenstein_placed'}

>  <distance_score>  (98) 
0.880864

>  <ref_mols>  (98) 
A0717a,A4706a

>  <smiles>  (98) 
O=C(NS(=O)(=O)[C@@H]1CCCNC1)c1cnn(C2CCCC2)c1

>  <HIPPO Pose ID>  (98) 
138624

>  <inchikey>  (98) 
YAGIQJGUZXILLT-UHFFFAOYSA-N

>  <ref_pdb>  (98) 
A3890a

>  <alias>  (98) 
C45662-P439

>  <energy_score>  (98) 
-36.493071

>  <HIPPO Compound ID>  (98) 
124499

$$$$
C54524-P305
     RDKit          3D

 14 15  0  0  0  0  0  0  0  0999 V2000
    9.6771   17.5048   21.1108 C   0  0  0  0  0  0  0  0  0  0  0  0
    8.7006   16.7757   22.0268 C   0  0  0  0  0  0  0  0  0  0  0  0
    8.7398   15.2582   21.8588 C   0  0  2  0  0  0  0  0  0  0  0  0
    8.2216   14.5225   23.1013 C   0  0  0  0  0  0  0  0  0  0  0  0
    9.3689   13.6002   23.4769 C   0  0  2  0  0  0  0  0  0  0  0  0
    9.5589   13.3461   24.9008 N   0  0  0  0  0  0  0  0  0  0  0  0
    8.5926   12.4729   25.5682 C   0  0  2  0  0  0  0  0  0  0  0  0
    8.0997   11.2645   24.7782 C   0  0  0  0  0  0  0  0  0  0  0  0
    7.2572   10.3910   25.6943 C   0  0  0  0  0  0  0  0  0  0  0  0
    6.1242   11.1559   26.3702 C   0  0  0  0  0  0  0  0  0  0  0  0
    6.5964   12.3484   27.0685 N   0  0  0  0  0  0  0  0  0  0  0  0
    7.3836   13.2205   26.1771 C   0  0  0  0  0  0  0  0  0  0  0  0
   10.5687   14.3383   22.8971 C   0  0  0  0  0  0  0  0  0  0  0  0
   10.0974   14.8514   21.6611 O   0  0  0  0  0  0  0  0  0  0  0  0
  1  2  1  0
  3  2  1  1
  3  4  1  0
  4  5  1  0
  5  6  1  1
  7  6  1  6
  7  8  1  0
  8  9  1  0
  9 10  1  0
 10 11  1  0
 11 12  1  0
  5 13  1  0
 13 14  1  0
 14  3  1  0
 12  7  1  0
M  END
>  <tags>  (99) 
{'openbind_a71ev2a_c1_knitwork_pure', 'fragmenstein_placed'}

>  <distance_score>  (99) 
0.896318

>  <ref_mols>  (99) 
A4321b,A0608a

>  <smiles>  (99) 
CC[C@@H]1C[C@H](N[C@@H]2CCCNC2)CO1

>  <HIPPO Pose ID>  (99) 
139314

>  <inchikey>  (99) 
JCRRANDBLAFJJV-UHFFFAOYSA-N

>  <ref_pdb>  (99) 
A3890a

>  <alias>  (99) 
C54524-P305

>  <energy_score>  (99) 
-32.51772

>  <HIPPO Compound ID>  (99) 
47965

$$$$
C45982-P197
     RDKit          3D

 23 26  0  0  0  0  0  0  0  0999 V2000
    8.4837   15.0632   26.3945 O   0  0  0  0  0  0  0  0  0  0  0  0
    8.9795   14.2805   25.2788 S   0  0  0  0  0  0  0  0  0  0  0  0
   10.3103   13.7161   25.3537 O   0  0  0  0  0  0  0  0  0  0  0  0
    8.8377   15.2859   23.8196 C   0  0  1  0  0  0  0  0  0  0  0  0
    9.7589   16.4794   23.8922 C   0  0  0  0  0  0  0  0  0  0  0  0
   11.2396   16.1491   23.7076 C   0  0  0  0  0  0  0  0  0  0  0  0
   11.5188   14.9249   22.8432 C   0  0  0  0  0  0  0  0  0  0  0  0
   10.4029   14.7233   21.9449 N   0  0  0  0  0  0  0  0  0  0  0  0
   10.5829   15.0543   20.6483 C   0  0  0  0  0  0  0  0  0  0  0  0
   11.7038   15.2585   19.9933 N   0  0  0  0  0  0  0  0  0  0  0  0
   11.2980   15.5562   18.7236 C   0  0  0  0  0  0  0  0  0  0  0  0
    9.9347   15.5639   18.6652 C   0  0  0  0  0  0  0  0  0  0  0  0
    9.4638   15.2285   19.8917 O   0  0  0  0  0  0  0  0  0  0  0  0
    9.0529   14.5679   22.5000 C   0  0  0  0  0  0  0  0  0  0  0  0
    7.8692   13.0733   24.9822 N   0  0  0  0  0  0  0  0  0  0  0  0
    6.5569   13.0507   25.6871 C   0  0  0  0  0  0  0  0  0  0  0  0
    6.3382   11.5822   26.0982 C   0  0  0  0  0  0  0  0  0  0  0  0
    7.3396   10.8630   25.2539 C   0  0  0  0  0  0  0  0  0  0  0  0
    7.4519    9.5078   25.0371 C   0  0  0  0  0  0  0  0  0  0  0  0
    8.4914    9.0549   24.2239 C   0  0  0  0  0  0  0  0  0  0  0  0
    9.4142    9.9374   23.6633 C   0  0  0  0  0  0  0  0  0  0  0  0
    9.3083   11.2994   23.9111 C   0  0  0  0  0  0  0  0  0  0  0  0
    8.2633   11.7419   24.7033 C   0  0  0  0  0  0  0  0  0  0  0  0
  1  2  2  0
  2  3  2  0
  4  2  1  1
  4  5  1  0
  5  6  1  0
  6  7  1  0
  7  8  1  0
  8  9  1  0
  9 10  2  0
 10 11  1  0
 11 12  2  0
 12 13  1  0
  8 14  1  0
  2 15  1  0
 15 16  1  0
 16 17  1  0
 17 18  1  0
 18 19  2  0
 19 20  1  0
 20 21  2  0
 21 22  1  0
 22 23  2  0
 14  4  1  0
 23 15  1  0
 13  9  1  0
 23 18  1  0
M  END
>  <tags>  (100) 
{'openbind_a71ev2a_c1_knitwork_pure', 'fragmenstein_placed'}

>  <distance_score>  (100) 
0.948468

>  <ref_mols>  (100) 
A3623a,A3616b

>  <smiles>  (100) 
O=S(=O)([C@H]1CCCN(c2ncco2)C1)N1CCc2ccccc21

>  <HIPPO Pose ID>  (100) 
140667

>  <inchikey>  (100) 
DANVHOXOMCKSFM-UHFFFAOYSA-N

>  <ref_pdb>  (100) 
A3890a

>  <alias>  (100) 
C45982-P197

>  <energy_score>  (100) 
-48.867902

>  <HIPPO Compound ID>  (100) 
96564

$$$$
C65274-P174
     RDKit          3D

 22 23  0  0  0  0  0  0  0  0999 V2000
    4.2451   11.8226   28.0502 O   0  0  0  0  0  0  0  0  0  0  0  0
    4.6228   12.5049   27.1844 C   0  0  0  0  0  0  0  0  0  0  0  0
    4.1298   13.8896   26.7148 N   0  0  0  0  0  0  0  0  0  0  0  0
    3.1304   14.7663   27.2725 C   0  0  0  0  0  0  0  0  0  0  0  0
    1.7094   14.3392   26.9333 C   0  0  0  0  0  0  0  0  0  0  0  0
    1.2913   14.5826   25.5648 N   0  0  0  0  0  0  0  0  0  0  0  0
    1.7314   13.9339   24.4457 C   0  0  0  0  0  0  0  0  0  0  0  0
    0.8465   14.2731   23.4510 C   0  0  0  0  0  0  0  0  0  0  0  0
   -0.0816   15.1630   23.9201 N   0  0  0  0  0  0  0  0  0  0  0  0
    0.2218   15.3509   25.1855 C   0  0  0  0  0  0  0  0  0  0  0  0
    5.7906   12.0366   26.3778 C   0  0  0  0  0  0  0  0  0  0  0  0
    5.9656   10.6707   26.1412 C   0  0  0  0  0  0  0  0  0  0  0  0
    7.0043   10.2821   25.3132 C   0  0  0  0  0  0  0  0  0  0  0  0
    7.8695   11.1485   24.7469 N   0  0  0  0  0  0  0  0  0  0  0  0
    7.6980   12.4477   25.0441 C   0  0  0  0  0  0  0  0  0  0  0  0
    8.6170   13.3464   24.5687 O   0  0  0  0  0  0  0  0  0  0  0  0
    8.6429   13.3152   23.1362 C   0  0  0  0  0  0  0  0  0  0  0  0
    9.6876   14.2843   22.6104 C   0  0  0  0  0  0  0  0  0  0  0  0
    9.8024   15.3735   23.4029 F   0  0  0  0  0  0  0  0  0  0  0  0
    9.3471   14.7201   21.3737 F   0  0  0  0  0  0  0  0  0  0  0  0
   10.9027   13.7052   22.5287 F   0  0  0  0  0  0  0  0  0  0  0  0
    6.7180   12.9397   25.8742 C   0  0  0  0  0  0  0  0  0  0  0  0
  1  2  2  0
  2  3  1  0
  3  4  1  0
  4  5  1  0
  5  6  1  0
  6  7  1  0
  7  8  2  0
  8  9  1  0
  9 10  2  0
  2 11  1  0
 11 12  2  0
 12 13  1  0
 13 14  2  0
 14 15  1  0
 15 16  1  0
 16 17  1  0
 17 18  1  0
 18 19  1  0
 18 20  1  0
 18 21  1  0
 15 22  2  0
 10  6  1  0
 22 11  1  0
M  END
>  <tags>  (101) 
{'openbind_a71ev2a_c1_knitwork_pure', 'fragmenstein_placed'}

>  <distance_score>  (101) 
0.937178

>  <ref_mols>  (101) 
A3371a,A3618a

>  <smiles>  (101) 
O=C(NCCn1ccnc1)c1ccnc(OCC(F)(F)F)c1

>  <HIPPO Pose ID>  (101) 
141714

>  <inchikey>  (101) 
WQPLYSTUHBUNOX-UHFFFAOYSA-N

>  <ref_pdb>  (101) 
A3890a

>  <alias>  (101) 
C65274-P174

>  <energy_score>  (101) 
-10.142604

>  <HIPPO Compound ID>  (101) 
50577

$$$$
C15317-P103
     RDKit          3D

 23 26  0  0  0  0  0  0  0  0999 V2000
   21.4420   -1.3418   20.3964 C   0  0  0  0  0  0  0  0  0  0  0  0
   20.6594   -2.5209   21.0051 C   0  0  2  0  0  0  0  0  0  0  0  0
   21.6055   -3.2745   21.9356 C   0  0  0  0  0  0  0  0  0  0  0  0
   21.4276   -3.2211   23.3223 C   0  0  0  0  0  0  0  0  0  0  0  0
   22.3095   -3.9178   24.1343 C   0  0  0  0  0  0  0  0  0  0  0  0
   23.3418   -4.6527   23.6697 N   0  0  0  0  0  0  0  0  0  0  0  0
   23.4973   -4.6947   22.3290 C   0  0  0  0  0  0  0  0  0  0  0  0
   22.6709   -4.0330   21.4352 C   0  0  0  0  0  0  0  0  0  0  0  0
   20.0541   -3.4184   19.9867 N   0  0  0  0  0  0  0  0  0  0  0  0
   19.2080   -4.4595   20.6355 C   0  0  0  0  0  0  0  0  0  0  0  0
   18.4594   -5.3596   19.6253 C   0  0  0  0  0  0  0  0  0  0  0  0
   17.6155   -4.5079   18.7861 N   0  0  0  0  0  0  0  0  0  0  0  0
   16.5029   -5.0336   18.1170 C   0  0  0  0  0  0  0  0  0  0  0  0
   15.4269   -4.1460   17.8501 C   0  0  0  0  0  0  0  0  0  0  0  0
   14.1997   -4.5692   17.3421 C   0  0  0  0  0  0  0  0  0  0  0  0
   13.9731   -5.9162   17.0838 C   0  0  0  0  0  0  0  0  0  0  0  0
   15.0241   -6.7996   17.3300 C   0  0  0  0  0  0  0  0  0  0  0  0
   15.0943   -8.1609   17.2057 N   0  0  0  0  0  0  0  0  0  0  0  0
   16.3015   -8.6812   17.4777 N   0  0  0  0  0  0  0  0  0  0  0  0
   17.0094   -7.6082   17.8436 C   0  0  0  0  0  0  0  0  0  0  0  0
   16.2702   -6.3984   17.8053 C   0  0  0  0  0  0  0  0  0  0  0  0
   18.4151   -3.5418   18.0179 C   0  0  0  0  0  0  0  0  0  0  0  0
   19.2267   -2.6643   19.0040 C   0  0  0  0  0  0  0  0  0  0  0  0
  2  1  1  6
  2  3  1  0
  3  4  2  0
  4  5  1  0
  5  6  2  0
  6  7  1  0
  7  8  2  0
  2  9  1  0
  9 10  1  0
 10 11  1  0
 11 12  1  0
 12 13  1  0
 13 14  2  0
 14 15  1  0
 15 16  2  0
 16 17  1  0
 17 18  1  0
 18 19  1  0
 19 20  2  0
 20 21  1  0
 12 22  1  0
 22 23  1  0
  8  3  1  0
 23  9  1  0
 21 13  1  0
 21 17  2  0
M  END
>  <tags>  (102) 
{'openbind_a71ev2a_c1_knitwork_pure', 'fragmenstein_placed'}

>  <distance_score>  (102) 
0.453542

>  <ref_mols>  (102) 
A3181b,A1105b

>  <smiles>  (102) 
C[C@H](c1ccncc1)N1CCN(c2cccc3[nH]ncc23)CC1

>  <HIPPO Pose ID>  (102) 
142623

>  <inchikey>  (102) 
CVBHTHVPQGKGJL-UHFFFAOYSA-N

>  <ref_pdb>  (102) 
A3890a

>  <alias>  (102) 
C15317-P103

>  <energy_score>  (102) 
-66.313206

>  <HIPPO Compound ID>  (102) 
51842

$$$$
C71039-P103
     RDKit          3D

 24 27  0  0  0  0  0  0  0  0999 V2000
   24.4627   -5.8407   16.8515 C   0  0  0  0  0  0  0  0  0  0  0  0
   23.7939   -5.0676   17.7974 C   0  0  0  0  0  0  0  0  0  0  0  0
   22.6989   -4.2775   17.4261 C   0  0  0  0  0  0  0  0  0  0  0  0
   21.9945   -3.4632   18.3189 N   0  0  0  0  0  0  0  0  0  0  0  0
   20.6075   -3.0688   17.9571 C   0  0  0  0  0  0  0  0  0  0  0  0
   19.8759   -2.4201   19.1307 C   0  0  0  0  0  0  0  0  0  0  0  0
   19.9008   -3.2837   20.4014 C   0  0  0  0  0  0  0  0  0  0  0  0
   18.7276   -4.1291   20.6705 N   0  0  0  0  0  0  0  0  0  0  0  0
   18.2720   -4.9848   19.5711 C   0  0  0  0  0  0  0  0  0  0  0  0
   17.3209   -4.2619   18.5916 C   0  0  0  0  0  0  0  0  0  0  0  0
   16.2411   -5.1259   17.9839 C   0  0  0  0  0  0  0  0  0  0  0  0
   14.9903   -4.5454   17.7161 C   0  0  0  0  0  0  0  0  0  0  0  0
   13.9263   -5.3113   17.2287 C   0  0  0  0  0  0  0  0  0  0  0  0
   14.1229   -6.6866   17.0167 C   0  0  0  0  0  0  0  0  0  0  0  0
   13.3586   -7.7850   16.5590 C   0  0  0  0  0  0  0  0  0  0  0  0
   14.0571   -8.9227   16.4887 N   0  0  0  0  0  0  0  0  0  0  0  0
   15.2684   -8.5603   16.9410 N   0  0  0  0  0  0  0  0  0  0  0  0
   15.3776   -7.2316   17.2514 C   0  0  0  0  0  0  0  0  0  0  0  0
   16.4637   -6.4829   17.7043 C   0  0  0  0  0  0  0  0  0  0  0  0
   21.2105   -4.0813   20.5395 C   0  0  0  0  0  0  0  0  0  0  0  0
   22.3228   -3.4015   19.7500 C   0  0  0  0  0  0  0  0  0  0  0  0
   22.3656   -4.3301   16.0655 C   0  0  0  0  0  0  0  0  0  0  0  0
   23.0932   -5.1239   15.1846 C   0  0  0  0  0  0  0  0  0  0  0  0
   24.1411   -5.8865   15.5473 N   0  0  0  0  0  0  0  0  0  0  0  0
  1  2  2  0
  2  3  1  0
  3  4  1  0
  4  5  1  0
  5  6  1  0
  6  7  1  0
  7  8  1  0
  8  9  1  0
  9 10  1  0
 10 11  1  0
 11 12  2  0
 12 13  1  0
 13 14  2  0
 14 15  1  0
 15 16  2  0
 16 17  1  0
 17 18  1  0
 18 19  2  0
  7 20  1  0
 20 21  1  0
  3 22  2  0
 22 23  1  0
 23 24  2  0
 24  1  1  0
 21  4  1  0
 19 11  1  0
 18 14  1  0
M  END
>  <tags>  (103) 
{'openbind_a71ev2a_c1_knitwork_pure', 'fragmenstein_placed'}

>  <distance_score>  (103) 
0.963503

>  <ref_mols>  (103) 
A3181b,A1105b

>  <smiles>  (103) 
c1cc(N2CCC(NCCc3ccc4cn[nH]c4c3)CC2)ccn1

>  <HIPPO Pose ID>  (103) 
142624

>  <inchikey>  (103) 
LHWDWDRIRYSRET-UHFFFAOYSA-N

>  <ref_pdb>  (103) 
A3890a

>  <alias>  (103) 
C71039-P103

>  <energy_score>  (103) 
-33.140694

>  <HIPPO Compound ID>  (103) 
72837

$$$$
C3689-P239
     RDKit          3D

 11 12  0  0  0  0  0  0  0  0999 V2000
    8.2468   11.4404   24.8312 C   0  0  0  0  0  0  0  0  0  0  0  0
    7.4492   12.3157   25.5577 C   0  0  0  0  0  0  0  0  0  0  0  0
    6.4368   11.8083   26.3684 C   0  0  0  0  0  0  0  0  0  0  0  0
    6.2522   10.4328   26.4200 C   0  0  0  0  0  0  0  0  0  0  0  0
    5.2535    9.8246   27.2829 C   0  0  0  0  0  0  0  0  0  0  0  0
    4.3816    8.7685   27.1040 C   0  0  0  0  0  0  0  0  0  0  0  0
    3.7316    8.5988   28.3385 C   0  0  0  0  0  0  0  0  0  0  0  0
    4.1306    9.4985   29.2396 N   0  0  0  0  0  0  0  0  0  0  0  0
    5.0633   10.2066   28.5801 N   0  0  0  0  0  0  0  0  0  0  0  0
    7.0165    9.5631   25.7221 N   0  0  0  0  0  0  0  0  0  0  0  0
    7.9938   10.0844   24.9420 C   0  0  0  0  0  0  0  0  0  0  0  0
  1  2  2  0
  2  3  1  0
  3  4  2  0
  4  5  1  0
  5  6  2  0
  6  7  1  0
  7  8  2  0
  8  9  1  0
  4 10  1  0
 10 11  2  0
 11  1  1  0
  9  5  1  0
M  END
>  <tags>  (104) 
{'openbind_a71ev2a_c1_knitwork_pure', 'fragmenstein_placed'}

>  <distance_score>  (104) 
0.980596

>  <ref_mols>  (104) 
A0556a,A3920a

>  <smiles>  (104) 
c1ccc(-c2ccn[nH]2)nc1

>  <HIPPO Pose ID>  (104) 
145852

>  <inchikey>  (104) 
FYTAAIVGKFAKKH-UHFFFAOYSA-N

>  <ref_pdb>  (104) 
A1146a

>  <alias>  (104) 
C3689-P239

>  <energy_score>  (104) 
-5.515014

>  <HIPPO Compound ID>  (104) 
59001

$$$$
C46556-P493
     RDKit          3D

 15 16  0  0  0  0  0  0  0  0999 V2000
    7.7844   13.2287   22.6442 O   0  0  0  0  0  0  0  0  0  0  0  0
    8.8437   13.5511   23.1883 C   0  0  0  0  0  0  0  0  0  0  0  0
    9.2278   12.9766   24.5472 C   0  0  0  0  0  0  0  0  0  0  0  0
    8.3064   11.8563   25.0295 C   0  0  0  0  0  0  0  0  0  0  0  0
    7.3318   12.2608   26.1449 C   0  0  1  0  0  0  0  0  0  0  0  0
    6.3722   13.4058   25.8006 C   0  0  0  0  0  0  0  0  0  0  0  0
    5.0818   13.3239   26.6208 C   0  0  0  0  0  0  0  0  0  0  0  0
    5.3049   12.6605   27.9776 C   0  0  0  0  0  0  0  0  0  0  0  0
    5.8470   11.2999   27.8985 N   0  0  0  0  0  0  0  0  0  0  0  0
    6.5707   11.0289   26.6550 C   0  0  0  0  0  0  0  0  0  0  0  0
    9.8148   14.4663   22.5547 C   0  0  0  0  0  0  0  0  0  0  0  0
   11.0921   14.8733   23.0928 C   0  0  0  0  0  0  0  0  0  0  0  0
   11.8019   15.6175   22.1757 C   0  0  0  0  0  0  0  0  0  0  0  0
   10.8451   15.7971   20.7732 S   0  0  0  0  0  0  0  0  0  0  0  0
    9.5380   14.9687   21.3475 N   0  0  0  0  0  0  0  0  0  0  0  0
  1  2  2  0
  2  3  1  0
  3  4  1  0
  5  4  1  6
  5  6  1  0
  6  7  1  0
  7  8  1  0
  8  9  1  0
  9 10  1  0
  2 11  1  0
 11 12  1  0
 12 13  2  0
 13 14  1  0
 14 15  1  0
 10  5  1  0
 15 11  2  0
M  END
>  <tags>  (105) 
{'openbind_a71ev2a_c1_knitwork_pure', 'fragmenstein_placed'}

>  <distance_score>  (105) 
0.925975

>  <ref_mols>  (105) 
A1775a,A4873b

>  <smiles>  (105) 
O=C(CC[C@H]1CCCNC1)c1ccsn1

>  <HIPPO Pose ID>  (105) 
146038

>  <inchikey>  (105) 
IOHXAAWNYVLFEF-UHFFFAOYSA-N

>  <ref_pdb>  (105) 
A1146a

>  <alias>  (105) 
C46556-P493

>  <energy_score>  (105) 
-39.965239

>  <HIPPO Compound ID>  (105) 
69067

$$$$
C46573-P493
     RDKit          3D

 17 18  0  0  0  0  0  0  0  0999 V2000
   10.8111   15.4926   19.4595 C   0  0  0  0  0  0  0  0  0  0  0  0
   10.0007   15.0880   20.6816 C   0  0  0  0  0  0  0  0  0  0  0  0
   10.7117   15.0608   21.9414 N   0  0  0  0  0  0  0  0  0  0  0  0
   11.9176   15.6505   22.0310 N   0  0  0  0  0  0  0  0  0  0  0  0
   12.3437   15.3336   23.2434 C   0  0  0  0  0  0  0  0  0  0  0  0
   11.3758   14.6616   23.9896 C   0  0  0  0  0  0  0  0  0  0  0  0
   10.3231   14.4454   23.1156 C   0  0  0  0  0  0  0  0  0  0  0  0
    9.0960   13.7045   23.3338 C   0  0  0  0  0  0  0  0  0  0  0  0
    8.2412   13.5290   22.4653 O   0  0  0  0  0  0  0  0  0  0  0  0
    8.8942   13.1618   24.7485 C   0  0  0  0  0  0  0  0  0  0  0  0
    7.8413   12.0576   24.8008 C   0  0  0  0  0  0  0  0  0  0  0  0
    7.1771   11.9056   26.1718 C   0  0  2  0  0  0  0  0  0  0  0  0
    6.6107   10.4973   26.3935 C   0  0  0  0  0  0  0  0  0  0  0  0
    5.4888   10.4751   27.4307 C   0  0  0  0  0  0  0  0  0  0  0  0
    5.6285   11.5940   28.4561 C   0  0  0  0  0  0  0  0  0  0  0  0
    5.6867   12.9360   27.8757 N   0  0  0  0  0  0  0  0  0  0  0  0
    6.1110   12.9692   26.4687 C   0  0  0  0  0  0  0  0  0  0  0  0
  1  2  1  0
  2  3  1  0
  3  4  1  0
  4  5  2  0
  5  6  1  0
  6  7  2  0
  7  8  1  0
  8  9  2  0
  8 10  1  0
 10 11  1  0
 12 11  1  6
 12 13  1  0
 13 14  1  0
 14 15  1  0
 15 16  1  0
 16 17  1  0
  7  3  1  0
 17 12  1  0
M  END
>  <tags>  (106) 
{'openbind_a71ev2a_c1_knitwork_pure', 'fragmenstein_placed'}

>  <distance_score>  (106) 
0.943684

>  <ref_mols>  (106) 
A1775a,A4873b

>  <smiles>  (106) 
CCn1nccc1C(=O)CC[C@@H]1CCCNC1

>  <HIPPO Pose ID>  (106) 
146043

>  <inchikey>  (106) 
HFDOTTQMGPTQDU-UHFFFAOYSA-N

>  <ref_pdb>  (106) 
A1146a

>  <alias>  (106) 
C46573-P493

>  <energy_score>  (106) 
-10.593415

>  <HIPPO Compound ID>  (106) 
135020

$$$$
C9335-P174
     RDKit          3D

 18 19  0  0  0  0  0  0  0  0999 V2000
    9.4329   15.6277   24.6042 C   0  0  0  0  0  0  0  0  0  0  0  0
    8.7952   14.2917   24.3709 C   0  0  0  0  0  0  0  0  0  0  0  0
    9.5996   13.2845   23.5189 C   0  0  2  0  0  0  0  0  0  0  0  0
    9.6985   13.6236   22.0942 N   0  0  0  0  0  0  0  0  0  0  0  0
   10.4484   14.8196   21.6793 C   0  0  0  0  0  0  0  0  0  0  0  0
   11.9868   14.6898   21.6551 C   0  0  0  0  0  0  0  0  0  0  0  0
   12.6451   15.7926   20.8795 C   0  0  0  0  0  0  0  0  0  0  0  0
   13.5356   16.7782   21.2577 C   0  0  0  0  0  0  0  0  0  0  0  0
   13.8636   17.6054   20.2147 N   0  0  0  0  0  0  0  0  0  0  0  0
   13.2468   17.0878   19.1779 C   0  0  0  0  0  0  0  0  0  0  0  0
   12.5107   15.9896   19.5257 N   0  0  0  0  0  0  0  0  0  0  0  0
   11.7400   15.1999   18.6026 C   0  0  0  0  0  0  0  0  0  0  0  0
    8.9746   11.8788   23.6985 C   0  0  0  0  0  0  0  0  0  0  0  0
    7.8445   11.6166   24.4882 C   0  0  0  0  0  0  0  0  0  0  0  0
    7.4398   10.3089   24.7031 C   0  0  0  0  0  0  0  0  0  0  0  0
    8.0544    9.2395   24.1752 N   0  0  0  0  0  0  0  0  0  0  0  0
    9.1026    9.4859   23.3691 C   0  0  0  0  0  0  0  0  0  0  0  0
    9.5769   10.7652   23.1072 C   0  0  0  0  0  0  0  0  0  0  0  0
  1  2  1  0
  3  2  1  1
  3  4  1  0
  4  5  1  0
  5  6  1  0
  6  7  1  0
  7  8  2  0
  8  9  1  0
  9 10  2  0
 10 11  1  0
 11 12  1  0
  3 13  1  0
 13 14  2  0
 14 15  1  0
 15 16  2  0
 16 17  1  0
 17 18  2  0
 11  7  1  0
 18 13  1  0
M  END
>  <tags>  (107) 
{'openbind_a71ev2a_c1_knitwork_pure', 'fragmenstein_placed'}

>  <distance_score>  (107) 
0.914347

>  <ref_mols>  (107) 
A3207a,A3371a

>  <smiles>  (107) 
CC[C@H](NCCc1cncn1C)c1ccncc1

>  <HIPPO Pose ID>  (107) 
148314

>  <inchikey>  (107) 
IAFIUIBPUCFPHK-UHFFFAOYSA-N

>  <ref_pdb>  (107) 
A1146a

>  <alias>  (107) 
C9335-P174

>  <energy_score>  (107) 
-17.769521

>  <HIPPO Compound ID>  (107) 
60938

$$$$
C46353-P372
     RDKit          3D

 17 19  0  0  0  0  0  0  0  0999 V2000
    6.4023   10.6245   26.2842 C   0  0  0  0  0  0  0  0  0  0  0  0
    6.2050   11.9944   26.4365 C   0  0  0  0  0  0  0  0  0  0  0  0
    7.0712   12.9501   25.8589 C   0  0  0  0  0  0  0  0  0  0  0  0
    6.8119   14.4319   26.0136 C   0  0  0  0  0  0  0  0  0  0  0  0
    5.3841   14.7476   25.9417 N   0  0  0  0  0  0  0  0  0  0  0  0
    5.0960   16.1909   25.8320 C   0  0  2  0  0  0  0  0  0  0  0  0
    5.7046   17.0211   26.9734 C   0  0  0  0  0  0  0  0  0  0  0  0
    5.2327   18.4716   26.8963 C   0  0  0  0  0  0  0  0  0  0  0  0
    3.7104   18.5610   26.8707 C   0  0  0  0  0  0  0  0  0  0  0  0
    3.1450   17.7951   25.7621 N   0  0  0  0  0  0  0  0  0  0  0  0
    3.5568   16.3878   25.8154 C   0  0  0  0  0  0  0  0  0  0  0  0
    8.1911   12.4212   25.1875 C   0  0  0  0  0  0  0  0  0  0  0  0
    9.2468   13.0171   24.5425 N   0  0  0  0  0  0  0  0  0  0  0  0
   10.1739   12.1563   24.0867 N   0  0  0  0  0  0  0  0  0  0  0  0
    9.6400   10.9614   24.3459 C   0  0  0  0  0  0  0  0  0  0  0  0
    8.4239   11.0588   25.0490 C   0  0  0  0  0  0  0  0  0  0  0  0
    7.5037   10.1466   25.5747 C   0  0  0  0  0  0  0  0  0  0  0  0
  1  2  2  0
  2  3  1  0
  3  4  1  0
  4  5  1  0
  6  5  1  1
  6  7  1  0
  7  8  1  0
  8  9  1  0
  9 10  1  0
 10 11  1  0
  3 12  2  0
 12 13  1  0
 13 14  1  0
 14 15  2  0
 15 16  1  0
 16 17  2  0
 17  1  1  0
 11  6  1  0
 16 12  1  0
M  END
>  <tags>  (108) 
{'openbind_a71ev2a_c1_knitwork_pure', 'fragmenstein_placed'}

>  <distance_score>  (108) 
0.487419

>  <ref_mols>  (108) 
A3181b,A4456b,A0486a

>  <smiles>  (108) 
c1cc(CN[C@@H]2CCCNC2)c2[nH]ncc2c1

>  <HIPPO Pose ID>  (108) 
148516

>  <inchikey>  (108) 
UKXGLWDFUDFURM-UHFFFAOYSA-N

>  <ref_pdb>  (108) 
A1146a

>  <alias>  (108) 
C46353-P372

>  <energy_score>  (108) 
-37.302584

>  <HIPPO Compound ID>  (108) 
53746

$$$$
C47846-P481
     RDKit          3D

 22 24  0  0  0  0  0  0  0  0999 V2000
    7.0729   14.7704    5.0722 N   0  0  0  0  0  0  0  0  0  0  0  0
    7.3093   13.7593    4.1207 C   0  0  0  0  0  0  0  0  0  0  0  0
    7.1530   12.4262    4.4714 C   0  0  0  0  0  0  0  0  0  0  0  0
    7.4340   11.4194    3.5538 C   0  0  0  0  0  0  0  0  0  0  0  0
    7.9249   11.7280    2.2781 C   0  0  0  0  0  0  0  0  0  0  0  0
    8.1426   13.0700    1.9026 C   0  0  0  0  0  0  0  0  0  0  0  0
    7.8846   14.0593    2.8769 C   0  0  0  0  0  0  0  0  0  0  0  0
    8.6615   13.3807    0.6315 N   0  0  0  0  0  0  0  0  0  0  0  0
    8.4878   14.7580    0.0867 C   0  0  0  0  0  0  0  0  0  0  0  0
    9.7912   15.5969    0.1408 C   0  0  0  0  0  0  0  0  0  0  0  0
    9.8618   16.6694   -0.3156 O   0  0  0  0  0  0  0  0  0  0  0  0
   10.8714   14.7261    0.8290 N   0  0  0  0  0  0  0  0  0  0  0  0
   12.2807   14.9564    1.0121 C   0  0  0  0  0  0  0  0  0  0  0  0
   13.1700   14.1312    0.0737 C   0  0  1  0  0  0  0  0  0  0  0  0
   13.1301   12.6288    0.4093 C   0  0  0  0  0  0  0  0  0  0  0  0
   13.3833   11.7493   -0.8146 C   0  0  0  0  0  0  0  0  0  0  0  0
   14.3159   12.4302   -1.8092 C   0  0  0  0  0  0  0  0  0  0  0  0
   13.8155   13.7159   -2.2959 N   0  0  0  0  0  0  0  0  0  0  0  0
   12.8520   14.3723   -1.4067 C   0  0  0  0  0  0  0  0  0  0  0  0
    8.5662   12.3194   -0.3850 C   0  0  0  0  0  0  0  0  0  0  0  0
    9.0591   10.9978    0.1714 C   0  0  0  0  0  0  0  0  0  0  0  0
    8.1705   10.5836    1.3285 C   0  0  0  0  0  0  0  0  0  0  0  0
  1  2  1  0
  2  3  2  0
  3  4  1  0
  4  5  2  0
  5  6  1  0
  6  7  2  0
  6  8  1  0
  8  9  1  0
  9 10  1  0
 10 11  2  0
 10 12  1  0
 12 13  1  0
 14 13  1  1
 14 15  1  0
 15 16  1  0
 16 17  1  0
 17 18  1  0
 18 19  1  0
  8 20  1  0
 20 21  1  0
 21 22  1  0
  7  2  1  0
 19 14  1  0
 22  5  1  0
M  END
>  <tags>  (109) 
{'openbind_a71ev2a_c1_knitwork_pure', 'fragmenstein_placed'}

>  <distance_score>  (109) 
0.675271

>  <ref_mols>  (109) 
A4836a,A0586a

>  <smiles>  (109) 
Nc1ccc2c(c1)N(CC(=O)NC[C@H]1CCCNC1)CCC2

>  <HIPPO Pose ID>  (109) 
149279

>  <inchikey>  (109) 
GUZPTPUPXMQGEW-UHFFFAOYSA-N

>  <ref_pdb>  (109) 
A1146a

>  <alias>  (109) 
C47846-P481

>  <energy_score>  (109) 
-44.122912

>  <HIPPO Compound ID>  (109) 
46989

$$$$
C47877-P481
     RDKit          3D

 22 24  0  0  0  0  0  0  0  0999 V2000
    9.9277   13.9517    0.6624 C   0  0  0  0  0  0  0  0  0  0  0  0
    8.5206   13.5252    0.6270 N   0  0  0  0  0  0  0  0  0  0  0  0
    8.1984   12.5872   -0.4650 C   0  0  0  0  0  0  0  0  0  0  0  0
    8.7451   11.1941   -0.1894 C   0  0  0  0  0  0  0  0  0  0  0  0
    8.1121   10.6312    1.0721 C   0  0  0  0  0  0  0  0  0  0  0  0
    7.9506   11.6650    2.1551 C   0  0  0  0  0  0  0  0  0  0  0  0
    7.5805   11.2270    3.4339 C   0  0  0  0  0  0  0  0  0  0  0  0
    7.3614   12.1374    4.4629 C   0  0  0  0  0  0  0  0  0  0  0  0
    7.4656   13.5011    4.2239 C   0  0  0  0  0  0  0  0  0  0  0  0
    7.8106   13.9556    2.9524 C   0  0  0  0  0  0  0  0  0  0  0  0
    7.8037   15.3202    2.6711 N   0  0  0  0  0  0  0  0  0  0  0  0
    7.6948   16.5408    3.6164 C   0  0  0  0  0  0  0  0  0  0  0  0
    7.5170   16.5917    4.7693 O   0  0  0  0  0  0  0  0  0  0  0  0
    7.8845   17.7882    2.8190 C   0  0  0  0  0  0  0  0  0  0  0  0
    7.2380   18.0276    1.6660 C   0  0  0  0  0  0  0  0  0  0  0  0
    7.3055   19.2862    0.8135 C   0  0  1  0  0  0  0  0  0  0  0  0
    5.8873   19.8008    0.4819 C   0  0  0  0  0  0  0  0  0  0  0  0
    5.4837   21.0396    1.2849 C   0  0  0  0  0  0  0  0  0  0  0  0
    6.1829   21.0950    2.6360 C   0  0  0  0  0  0  0  0  0  0  0  0
    7.6376   21.1644    2.5071 N   0  0  0  0  0  0  0  0  0  0  0  0
    8.1749   20.4452    1.3493 C   0  0  0  0  0  0  0  0  0  0  0  0
    8.0964   13.0449    1.9029 C   0  0  0  0  0  0  0  0  0  0  0  0
  1  2  1  0
  2  3  1  0
  3  4  1  0
  4  5  1  0
  5  6  1  0
  6  7  2  0
  7  8  1  0
  8  9  2  0
  9 10  1  0
 10 11  1  0
 11 12  1  0
 12 13  2  0
 12 14  1  0
 14 15  2  3
 15 16  1  0
 16 17  1  1
 17 18  1  0
 18 19  1  0
 19 20  1  0
 20 21  1  0
 10 22  2  0
 22  2  1  0
 22  6  1  0
 21 16  1  0
M  END
>  <tags>  (110) 
{'openbind_a71ev2a_c1_knitwork_pure', 'fragmenstein_placed'}

>  <distance_score>  (110) 
0.398039

>  <ref_mols>  (110) 
A4836a,A0586a

>  <smiles>  (110) 
CN1CCCc2cccc(NC(=O)C=C[C@H]3CCCNC3)c21

>  <HIPPO Pose ID>  (110) 
149307

>  <inchikey>  (110) 
QMWIEGHYOIRDQB-UHFFFAOYSA-N

>  <ref_pdb>  (110) 
A1146a

>  <alias>  (110) 
C47877-P481

>  <energy_score>  (110) 
-52.217969

>  <HIPPO Compound ID>  (110) 
77581

$$$$
C46339-P374
     RDKit          3D

 16 18  0  0  0  0  0  0  0  0999 V2000
   19.9027   17.7463    1.8220 C   0  0  0  0  0  0  0  0  0  0  0  0
   20.6838   16.6269    2.1496 C   0  0  0  0  0  0  0  0  0  0  0  0
   20.0049   15.4483    2.4545 C   0  0  0  0  0  0  0  0  0  0  0  0
   20.4492   14.2131    2.8477 N   0  0  0  0  0  0  0  0  0  0  0  0
   19.4605   13.3108    3.0330 N   0  0  0  0  0  0  0  0  0  0  0  0
   18.3511   14.0209    2.8133 C   0  0  0  0  0  0  0  0  0  0  0  0
   18.6210   15.3562    2.4448 C   0  0  0  0  0  0  0  0  0  0  0  0
   17.8630   16.4947    2.1170 C   0  0  0  0  0  0  0  0  0  0  0  0
   18.5034   17.6995    1.7677 C   0  0  0  0  0  0  0  0  0  0  0  0
   17.6986   18.8166    1.5193 N   0  0  0  0  0  0  0  0  0  0  0  0
   18.2107   20.0001    0.8154 C   0  0  1  0  0  0  0  0  0  0  0  0
   18.4481   19.6917   -0.6728 C   0  0  0  0  0  0  0  0  0  0  0  0
   18.2659   20.9172   -1.5716 C   0  0  0  0  0  0  0  0  0  0  0  0
   18.5207   22.2182   -0.8184 C   0  0  0  0  0  0  0  0  0  0  0  0
   17.5848   22.4108    0.2896 N   0  0  0  0  0  0  0  0  0  0  0  0
   17.1997   21.1634    0.9619 C   0  0  0  0  0  0  0  0  0  0  0  0
  1  2  2  0
  2  3  1  0
  3  4  1  0
  4  5  1  0
  5  6  2  0
  6  7  1  0
  7  8  1  0
  8  9  2  0
  9 10  1  0
 11 10  1  1
 11 12  1  0
 12 13  1  0
 13 14  1  0
 14 15  1  0
 15 16  1  0
  9  1  1  0
 16 11  1  0
  7  3  2  0
M  END
>  <tags>  (111) 
{'openbind_a71ev2a_c1_knitwork_pure', 'fragmenstein_placed'}

>  <distance_score>  (111) 
0.273756

>  <ref_mols>  (111) 
A0486a,A4463a

>  <smiles>  (111) 
c1cc2[nH]ncc2cc1N[C@H]1CCCNC1

>  <HIPPO Pose ID>  (111) 
149819

>  <inchikey>  (111) 
QHJYNEFJLIJZEI-UHFFFAOYSA-N

>  <ref_pdb>  (111) 
A1146a

>  <alias>  (111) 
C46339-P374

>  <energy_score>  (111) 
-30.961652

>  <HIPPO Compound ID>  (111) 
50934

$$$$
C54239-P153
     RDKit          3D

 15 16  0  0  0  0  0  0  0  0999 V2000
    7.8133   14.0469   25.4861 C   0  0  0  0  0  0  0  0  0  0  0  0
    8.6906   13.1112   24.6546 C   0  0  2  0  0  0  0  0  0  0  0  0
    8.6505   13.5882   23.1928 C   0  0  0  0  0  0  0  0  0  0  0  0
    7.7099   13.2867   22.4498 O   0  0  0  0  0  0  0  0  0  0  0  0
    9.7798   14.3993   22.6985 C   0  0  0  0  0  0  0  0  0  0  0  0
    9.9399   14.8497   21.3400 C   0  0  0  0  0  0  0  0  0  0  0  0
   11.1411   15.4998   21.1658 C   0  0  0  0  0  0  0  0  0  0  0  0
   11.9419   15.5378   22.6622 S   0  0  0  0  0  0  0  0  0  0  0  0
   10.7730   14.7512   23.5253 N   0  0  0  0  0  0  0  0  0  0  0  0
    8.3327   11.6401   24.8022 C   0  0  0  0  0  0  0  0  0  0  0  0
    9.0559   10.6765   24.0872 C   0  0  0  0  0  0  0  0  0  0  0  0
    8.7708    9.3393   24.2978 C   0  0  0  0  0  0  0  0  0  0  0  0
    7.8241    8.9086   25.1619 N   0  0  0  0  0  0  0  0  0  0  0  0
    7.1205    9.8407   25.8240 C   0  0  0  0  0  0  0  0  0  0  0  0
    7.3363   11.1956   25.6803 C   0  0  0  0  0  0  0  0  0  0  0  0
  2  1  1  1
  2  3  1  0
  3  4  2  0
  3  5  1  0
  5  6  1  0
  6  7  2  0
  7  8  1  0
  8  9  1  0
  2 10  1  0
 10 11  2  0
 11 12  1  0
 12 13  2  0
 13 14  1  0
 14 15  2  0
  9  5  2  0
 15 10  1  0
M  END
>  <tags>  (112) 
{'openbind_a71ev2a_c1_knitwork_pure', 'fragmenstein_placed'}

>  <distance_score>  (112) 
0.979086

>  <ref_mols>  (112) 
A3207a,A1775a

>  <smiles>  (112) 
C[C@H](C(=O)c1ccsn1)c1ccncc1

>  <HIPPO Pose ID>  (112) 
150225

>  <inchikey>  (112) 
LXFPHGKSVKIPAM-UHFFFAOYSA-N

>  <ref_pdb>  (112) 
A1146a

>  <alias>  (112) 
C54239-P153

>  <energy_score>  (112) 
-29.457437

>  <HIPPO Compound ID>  (112) 
134972

$$$$
C60323-P153
     RDKit          3D

 15 16  0  0  0  0  0  0  0  0999 V2000
    5.3323   10.6054   27.2098 N   0  0  0  0  0  0  0  0  0  0  0  0
    6.2340   10.5928   26.4800 C   0  0  0  0  0  0  0  0  0  0  0  0
    7.3549   10.7523   25.6109 C   0  0  0  0  0  0  0  0  0  0  0  0
    7.8795   12.0216   25.4513 C   0  0  0  0  0  0  0  0  0  0  0  0
    8.9242   12.1954   24.5599 C   0  0  0  0  0  0  0  0  0  0  0  0
    9.4745   13.4667   24.3608 N   0  0  0  0  0  0  0  0  0  0  0  0
    8.9928   14.1207   23.1282 C   0  0  0  0  0  0  0  0  0  0  0  0
   10.0304   14.7291   22.2472 C   0  0  0  0  0  0  0  0  0  0  0  0
   11.3785   14.9448   22.4602 C   0  0  0  0  0  0  0  0  0  0  0  0
   11.8494   15.4631   21.2832 N   0  0  0  0  0  0  0  0  0  0  0  0
   10.7877   15.5716   20.4298 C   0  0  0  0  0  0  0  0  0  0  0  0
    9.6755   15.1504   20.9870 N   0  0  0  0  0  0  0  0  0  0  0  0
    9.3553   11.1012   23.8128 C   0  0  0  0  0  0  0  0  0  0  0  0
    8.8095    9.8556   24.0773 C   0  0  0  0  0  0  0  0  0  0  0  0
    7.8199    9.6541   24.9781 N   0  0  0  0  0  0  0  0  0  0  0  0
  1  2  3  0
  2  3  1  0
  3  4  2  0
  4  5  1  0
  5  6  1  0
  6  7  1  0
  7  8  1  0
  8  9  2  0
  9 10  1  0
 10 11  1  0
 11 12  2  0
  5 13  2  0
 13 14  1  0
 14 15  2  0
 15  3  1  0
 12  8  1  0
M  END
>  <tags>  (113) 
{'openbind_a71ev2a_c1_knitwork_pure', 'fragmenstein_placed'}

>  <distance_score>  (113) 
0.901459

>  <ref_mols>  (113) 
A3207a,A3371a

>  <smiles>  (113) 
N#Cc1cc(NCc2c[nH]cn2)ccn1

>  <HIPPO Pose ID>  (113) 
151552

>  <inchikey>  (113) 
QTXYAPLSYSHZLH-UHFFFAOYSA-N

>  <ref_pdb>  (113) 
A1146a

>  <alias>  (113) 
C60323-P153

>  <energy_score>  (113) 
-9.565053

>  <HIPPO Compound ID>  (113) 
46563

$$$$
C48580-P124
     RDKit          3D

 14 15  0  0  0  0  0  0  0  0999 V2000
    5.8860   13.2101   26.5371 C   0  0  0  0  0  0  0  0  0  0  0  0
    6.6324   12.1057   25.7844 C   0  0  2  0  0  0  0  0  0  0  0  0
    6.2650   10.8289   26.4936 C   0  0  0  0  0  0  0  0  0  0  0  0
    5.9928    9.7830   25.9165 O   0  0  0  0  0  0  0  0  0  0  0  0
    8.0910   12.3114   25.7909 N   0  0  0  0  0  0  0  0  0  0  0  0
    8.5402   13.6782   25.4726 C   0  0  0  0  0  0  0  0  0  0  0  0
    9.9571   13.6241   24.9297 C   0  0  0  0  0  0  0  0  0  0  0  0
    9.9731   12.2453   24.3983 C   0  0  0  0  0  0  0  0  0  0  0  0
   10.8977   11.6727   23.5474 C   0  0  0  0  0  0  0  0  0  0  0  0
   10.7202   10.3418   23.2134 C   0  0  0  0  0  0  0  0  0  0  0  0
   11.8729    9.5208   22.0115 Br  0  0  0  0  0  0  0  0  0  0  0  0
    9.6750    9.5982   23.7337 C   0  0  0  0  0  0  0  0  0  0  0  0
    8.7686   10.2014   24.5960 C   0  0  0  0  0  0  0  0  0  0  0  0
    8.8920   11.5348   24.9218 C   0  0  0  0  0  0  0  0  0  0  0  0
  2  1  1  1
  2  3  1  0
  3  4  2  0
  2  5  1  0
  5  6  1  0
  6  7  1  0
  7  8  1  0
  8  9  2  0
  9 10  1  0
 10 11  1  0
 10 12  2  0
 12 13  1  0
 13 14  2  0
 14  5  1  0
 14  8  1  0
M  END
>  <tags>  (114) 
{'openbind_a71ev2a_c1_knitwork_pure', 'fragmenstein_placed'}

>  <distance_score>  (114) 
0.874583

>  <ref_mols>  (114) 
A1778a,A4570a

>  <smiles>  (114) 
C[C@H](C=O)N1CCc2cc(Br)ccc21

>  <HIPPO Pose ID>  (114) 
152891

>  <inchikey>  (114) 
UQXXRJNOVZBMSS-UHFFFAOYSA-N

>  <ref_pdb>  (114) 
A1146a

>  <alias>  (114) 
C48580-P124

>  <energy_score>  (114) 
-15.755622

>  <HIPPO Compound ID>  (114) 
45675

$$$$
C45982-P173
     RDKit          3D

 23 26  0  0  0  0  0  0  0  0999 V2000
    7.4601   13.5363   22.1074 O   0  0  0  0  0  0  0  0  0  0  0  0
    7.6780   14.1861   23.3841 S   0  0  0  0  0  0  0  0  0  0  0  0
    6.5437   14.7059   24.1261 O   0  0  0  0  0  0  0  0  0  0  0  0
    8.7970   15.5804   23.2727 C   0  0  1  0  0  0  0  0  0  0  0  0
    9.8713   15.6720   24.3657 C   0  0  0  0  0  0  0  0  0  0  0  0
   11.2700   15.2294   23.9470 C   0  0  0  0  0  0  0  0  0  0  0  0
   11.6221   15.6980   22.5481 C   0  0  0  0  0  0  0  0  0  0  0  0
   10.5916   15.2205   21.6370 N   0  0  0  0  0  0  0  0  0  0  0  0
   10.9878   15.3095   20.3525 C   0  0  0  0  0  0  0  0  0  0  0  0
   11.4719   14.3749   19.5825 N   0  0  0  0  0  0  0  0  0  0  0  0
   11.6063   14.9729   18.3842 C   0  0  0  0  0  0  0  0  0  0  0  0
   11.3907   16.3011   18.5326 C   0  0  0  0  0  0  0  0  0  0  0  0
   10.9398   16.5416   19.7787 O   0  0  0  0  0  0  0  0  0  0  0  0
    9.2822   15.8397   21.8637 C   0  0  0  0  0  0  0  0  0  0  0  0
    8.4866   13.0634   24.3784 N   0  0  0  0  0  0  0  0  0  0  0  0
    9.5392   12.2287   23.6833 C   0  0  0  0  0  0  0  0  0  0  0  0
    9.0655   10.7699   23.7288 C   0  0  0  0  0  0  0  0  0  0  0  0
    7.9365   10.8329   24.6985 C   0  0  0  0  0  0  0  0  0  0  0  0
    7.2052    9.7826   25.2115 C   0  0  0  0  0  0  0  0  0  0  0  0
    6.1367   10.0556   26.0701 C   0  0  0  0  0  0  0  0  0  0  0  0
    5.8232   11.3729   26.4192 C   0  0  0  0  0  0  0  0  0  0  0  0
    6.5736   12.4262   25.9027 C   0  0  0  0  0  0  0  0  0  0  0  0
    7.6087   12.1370   25.0262 C   0  0  0  0  0  0  0  0  0  0  0  0
  1  2  2  0
  2  3  2  0
  4  2  1  6
  4  5  1  0
  5  6  1  0
  6  7  1  0
  7  8  1  0
  8  9  1  0
  9 10  2  0
 10 11  1  0
 11 12  2  0
 12 13  1  0
  8 14  1  0
  2 15  1  0
 15 16  1  0
 16 17  1  0
 17 18  1  0
 18 19  2  0
 19 20  1  0
 20 21  2  0
 21 22  1  0
 22 23  2  0
 14  4  1  0
 23 15  1  0
 13  9  1  0
 23 18  1  0
M  END
>  <tags>  (115) 
{'openbind_a71ev2a_c1_knitwork_pure', 'fragmenstein_placed'}

>  <distance_score>  (115) 
0.819902

>  <ref_mols>  (115) 
A3623a,A3587a

>  <smiles>  (115) 
O=S(=O)([C@H]1CCCN(c2ncco2)C1)N1CCc2ccccc21

>  <HIPPO Pose ID>  (115) 
155452

>  <inchikey>  (115) 
ISGNTNSLKCLYPY-UHFFFAOYSA-N

>  <ref_pdb>  (115) 
A1146a

>  <alias>  (115) 
C45982-P173

>  <energy_score>  (115) 
-43.074982

>  <HIPPO Compound ID>  (115) 
2648

$$$$
C45874-P159
     RDKit          3D

 17 18  0  0  0  0  0  0  0  0999 V2000
   11.7159   14.8615   18.3841 C   0  0  0  0  0  0  0  0  0  0  0  0
   10.4106   14.4098   18.6171 O   0  0  0  0  0  0  0  0  0  0  0  0
    9.6958   15.3237   19.4238 C   0  0  0  0  0  0  0  0  0  0  0  0
    9.8642   15.0915   20.8916 C   0  0  0  0  0  0  0  0  0  0  0  0
   11.1007   15.2454   21.3942 N   0  0  0  0  0  0  0  0  0  0  0  0
   11.1970   15.1913   22.7164 C   0  0  0  0  0  0  0  0  0  0  0  0
   10.1127   15.0455   23.5388 C   0  0  0  0  0  0  0  0  0  0  0  0
    8.9000   14.8094   22.9345 C   0  0  0  0  0  0  0  0  0  0  0  0
    7.7485   14.5065   23.6864 N   0  0  0  0  0  0  0  0  0  0  0  0
    7.5629   13.0493   23.8188 C   0  0  0  0  0  0  0  0  0  0  0  0
    8.0058   12.5162   25.1946 C   0  0  2  0  0  0  0  0  0  0  0  0
    9.5104   12.5026   25.4195 C   0  0  0  0  0  0  0  0  0  0  0  0
   10.2174   11.6375   24.4018 C   0  0  0  0  0  0  0  0  0  0  0  0
    9.6736   10.2157   24.4611 C   0  0  0  0  0  0  0  0  0  0  0  0
    8.2223   10.1476   24.4911 N   0  0  0  0  0  0  0  0  0  0  0  0
    7.5509   11.0691   25.3908 C   0  0  0  0  0  0  0  0  0  0  0  0
    8.7485   14.8511   21.6138 N   0  0  0  0  0  0  0  0  0  0  0  0
  1  2  1  0
  2  3  1  0
  3  4  1  0
  4  5  2  0
  5  6  1  0
  6  7  2  0
  7  8  1  0
  8  9  1  0
  9 10  1  0
 11 10  1  6
 11 12  1  0
 12 13  1  0
 13 14  1  0
 14 15  1  0
 15 16  1  0
  8 17  2  0
 17  4  1  0
 16 11  1  0
M  END
>  <tags>  (116) 
{'openbind_a71ev2a_c1_knitwork_pure', 'fragmenstein_placed'}

>  <distance_score>  (116) 
0.994369

>  <ref_mols>  (116) 
A3223a,A1068a

>  <smiles>  (116) 
COCc1nccc(NC[C@@H]2CCCNC2)n1

>  <HIPPO Pose ID>  (116) 
155801

>  <inchikey>  (116) 
OLVAHZCAPPDKML-UHFFFAOYSA-N

>  <ref_pdb>  (116) 
A1146a

>  <alias>  (116) 
C45874-P159

>  <energy_score>  (116) 
-28.916385

>  <HIPPO Compound ID>  (116) 
45999

$$$$
C3275-P159
     RDKit          3D

 12 13  0  0  0  0  0  0  0  0999 V2000
    9.1924   10.4062   23.8381 C   0  0  0  0  0  0  0  0  0  0  0  0
    9.4991   11.6608   23.3523 C   0  0  0  0  0  0  0  0  0  0  0  0
    8.8339   12.7413   23.8926 C   0  0  0  0  0  0  0  0  0  0  0  0
    9.1436   14.0449   23.5479 N   0  0  0  0  0  0  0  0  0  0  0  0
    8.4481   14.6608   22.4165 C   0  0  0  0  0  0  0  0  0  0  0  0
    9.3328   14.7082   21.1716 C   0  0  0  0  0  0  0  0  0  0  0  0
   10.7117   15.2914   21.4553 C   0  0  0  0  0  0  0  0  0  0  0  0
   11.3770   14.5478   22.6042 C   0  0  0  0  0  0  0  0  0  0  0  0
   10.4875   14.5273   23.8418 C   0  0  0  0  0  0  0  0  0  0  0  0
    7.8881   12.5567   24.8274 N   0  0  0  0  0  0  0  0  0  0  0  0
    7.6595   11.2979   25.2334 C   0  0  0  0  0  0  0  0  0  0  0  0
    8.2797   10.1961   24.7970 N   0  0  0  0  0  0  0  0  0  0  0  0
  1  2  2  0
  2  3  1  0
  3  4  1  0
  4  5  1  0
  5  6  1  0
  6  7  1  0
  7  8  1  0
  8  9  1  0
  3 10  2  0
 10 11  1  0
 11 12  2  0
 12  1  1  0
  9  4  1  0
M  END
>  <tags>  (117) 
{'openbind_a71ev2a_c1_knitwork_pure', 'fragmenstein_placed'}

>  <distance_score>  (117) 
0.943922

>  <ref_mols>  (117) 
A3223a,A1068a

>  <smiles>  (117) 
c1cc(N2CCCCC2)ncn1

>  <HIPPO Pose ID>  (117) 
155848

>  <inchikey>  (117) 
BWJOVYDSIAZYNE-UHFFFAOYSA-N

>  <ref_pdb>  (117) 
A1146a

>  <alias>  (117) 
C3275-P159

>  <energy_score>  (117) 
-8.036181

>  <HIPPO Compound ID>  (117) 
46630

$$$$
C46500-P219
     RDKit          3D

 15 16  0  0  0  0  0  0  0  0999 V2000
    8.0167   14.6919   23.5352 Cl  0  0  0  0  0  0  0  0  0  0  0  0
    8.2945   13.1021   24.1352 C   0  0  0  0  0  0  0  0  0  0  0  0
    7.4090   12.5788   25.0686 C   0  0  0  0  0  0  0  0  0  0  0  0
    7.4149   11.2892   25.4723 N   0  0  0  0  0  0  0  0  0  0  0  0
    8.3040   10.4889   24.8542 C   0  0  0  0  0  0  0  0  0  0  0  0
    9.2568   10.9215   23.9466 C   0  0  0  0  0  0  0  0  0  0  0  0
    9.2877   12.2693   23.5938 C   0  0  0  0  0  0  0  0  0  0  0  0
   10.2846   12.7148   22.7165 N   0  0  0  0  0  0  0  0  0  0  0  0
   11.2252   13.7112   23.2298 C   0  0  0  0  0  0  0  0  0  0  0  0
   12.0370   14.3323   22.0811 C   0  0  1  0  0  0  0  0  0  0  0  0
   11.1441   14.8929   20.9656 C   0  0  0  0  0  0  0  0  0  0  0  0
   11.9901   15.6045   19.9145 C   0  0  0  0  0  0  0  0  0  0  0  0
   12.8448   16.6935   20.5540 C   0  0  0  0  0  0  0  0  0  0  0  0
   13.7003   16.1602   21.6147 N   0  0  0  0  0  0  0  0  0  0  0  0
   12.9221   15.4598   22.6341 C   0  0  0  0  0  0  0  0  0  0  0  0
  1  2  1  0
  2  3  2  0
  3  4  1  0
  4  5  2  0
  5  6  1  0
  6  7  2  0
  7  8  1  0
  8  9  1  0
 10  9  1  1
 10 11  1  0
 11 12  1  0
 12 13  1  0
 13 14  1  0
 14 15  1  0
  7  2  1  0
 15 10  1  0
M  END
>  <tags>  (118) 
{'openbind_a71ev2a_c1_knitwork_pure', 'fragmenstein_placed'}

>  <distance_score>  (118) 
0.928022

>  <ref_mols>  (118) 
A4943b,A3986b,A3564a,A4708a

>  <smiles>  (118) 
Clc1cnccc1NC[C@H]1CCCNC1

>  <HIPPO Pose ID>  (118) 
159003

>  <inchikey>  (118) 
BJSRYGJAQHXCPG-UHFFFAOYSA-N

>  <ref_pdb>  (118) 
A0239a

>  <alias>  (118) 
C46500-P219

>  <energy_score>  (118) 
-16.695709

>  <HIPPO Compound ID>  (118) 
49327

$$$$
C46501-P219
     RDKit          3D

 16 17  0  0  0  0  0  0  0  0999 V2000
   10.2196    9.4157   22.9490 N   0  0  0  0  0  0  0  0  0  0  0  0
    9.6206   10.2832   23.4255 C   0  0  0  0  0  0  0  0  0  0  0  0
    8.8265   11.1975   24.1702 C   0  0  0  0  0  0  0  0  0  0  0  0
    8.0011   10.6458   25.1417 C   0  0  0  0  0  0  0  0  0  0  0  0
    7.1905   11.3472   25.9589 N   0  0  0  0  0  0  0  0  0  0  0  0
    7.1562   12.6723   25.7451 C   0  0  0  0  0  0  0  0  0  0  0  0
    7.9119   13.3183   24.7795 C   0  0  0  0  0  0  0  0  0  0  0  0
    8.7673   12.5748   23.9578 C   0  0  0  0  0  0  0  0  0  0  0  0
    9.4891   13.2548   22.9696 N   0  0  0  0  0  0  0  0  0  0  0  0
   10.9448   13.3568   23.1323 C   0  0  0  0  0  0  0  0  0  0  0  0
   11.4287   14.6824   22.5122 C   0  0  2  0  0  0  0  0  0  0  0  0
   11.2761   14.7008   20.9844 C   0  0  0  0  0  0  0  0  0  0  0  0
   11.8119   16.0090   20.4107 C   0  0  0  0  0  0  0  0  0  0  0  0
   13.2438   16.2651   20.8682 C   0  0  0  0  0  0  0  0  0  0  0  0
   13.3786   16.2133   22.3279 N   0  0  0  0  0  0  0  0  0  0  0  0
   12.8913   14.9424   22.8661 C   0  0  0  0  0  0  0  0  0  0  0  0
  1  2  3  0
  2  3  1  0
  3  4  2  0
  4  5  1  0
  5  6  2  0
  6  7  1  0
  7  8  2  0
  8  9  1  0
  9 10  1  0
 11 10  1  6
 11 12  1  0
 12 13  1  0
 13 14  1  0
 14 15  1  0
 15 16  1  0
  8  3  1  0
 16 11  1  0
M  END
>  <tags>  (119) 
{'openbind_a71ev2a_c1_knitwork_pure', 'fragmenstein_placed'}

>  <distance_score>  (119) 
0.908755

>  <ref_mols>  (119) 
A4943b,A3986b,A3564a,A4708a

>  <smiles>  (119) 
N#Cc1cnccc1NC[C@@H]1CCCNC1

>  <HIPPO Pose ID>  (119) 
159005

>  <inchikey>  (119) 
FWAPTJLEEQMNPP-UHFFFAOYSA-N

>  <ref_pdb>  (119) 
A0239a

>  <alias>  (119) 
C46501-P219

>  <energy_score>  (119) 
-34.903344

>  <HIPPO Compound ID>  (119) 
67150

$$$$
C13204-P195
     RDKit          3D

 13 13  0  0  0  0  0  0  0  0999 V2000
   11.9957   14.8868   23.3082 C   0  0  0  0  0  0  0  0  0  0  0  0
   10.6368   15.4103   23.7387 C   0  0  0  0  0  0  0  0  0  0  0  0
    9.5355   14.9861   22.7808 C   0  0  0  0  0  0  0  0  0  0  0  0
    8.8114   13.3963   23.1672 S   0  0  0  0  0  0  0  0  0  0  0  0
    7.7284   13.1605   22.2342 O   0  0  0  0  0  0  0  0  0  0  0  0
    9.8323   12.4157   23.4466 O   0  0  0  0  0  0  0  0  0  0  0  0
    7.9805   13.7231   24.5810 N   0  0  0  0  0  0  0  0  0  0  0  0
    7.7216   12.5994   25.5150 C   0  0  1  0  0  0  0  0  0  0  0  0
    6.5273   13.0287   26.3786 C   0  0  0  0  0  0  0  0  0  0  0  0
    6.0439   11.9371   27.3171 C   0  0  0  0  0  0  0  0  0  0  0  0
    5.8834   10.6071   26.5994 C   0  0  0  0  0  0  0  0  0  0  0  0
    7.0803   10.2139   25.8739 N   0  0  0  0  0  0  0  0  0  0  0  0
    7.4826   11.2192   24.8872 C   0  0  0  0  0  0  0  0  0  0  0  0
  1  2  1  0
  2  3  1  0
  3  4  1  0
  4  5  2  0
  4  6  2  0
  4  7  1  0
  8  7  1  6
  8  9  1  0
  9 10  1  0
 10 11  1  0
 11 12  1  0
 12 13  1  0
 13  8  1  0
M  END
>  <tags>  (120) 
{'openbind_a71ev2a_c1_knitwork_pure', 'fragmenstein_placed'}

>  <distance_score>  (120) 
0.888437

>  <ref_mols>  (120) 
A3612a,A0719a

>  <smiles>  (120) 
CCCS(=O)(=O)N[C@H]1CCCNC1

>  <HIPPO Pose ID>  (120) 
161390

>  <inchikey>  (120) 
LAVJEXPQSPEZFW-UHFFFAOYSA-N

>  <ref_pdb>  (120) 
A0239a

>  <alias>  (120) 
C13204-P195

>  <energy_score>  (120) 
-46.256071

>  <HIPPO Compound ID>  (120) 
63643

$$$$
C36518-P207
     RDKit          3D

 12 12  0  0  0  0  0  0  0  0999 V2000
    6.2930   13.6767   25.7764 O   0  0  0  0  0  0  0  0  0  0  0  0
    7.2434   13.3081   25.2142 C   0  0  0  0  0  0  0  0  0  0  0  0
    8.4126   14.2320   24.9094 C   0  0  0  0  0  0  0  0  0  0  0  0
    8.4998   14.5788   23.4224 C   0  0  0  0  0  0  0  0  0  0  0  0
    9.3577   15.7415   23.1727 N   0  0  0  0  0  0  0  0  0  0  0  0
   10.7473   15.6133   23.6171 C   0  0  0  0  0  0  0  0  0  0  0  0
   11.6100   14.7065   22.7444 C   0  0  0  0  0  0  0  0  0  0  0  0
   11.5754   15.1609   21.2904 C   0  0  0  0  0  0  0  0  0  0  0  0
   10.1348   15.2987   20.8109 C   0  0  0  0  0  0  0  0  0  0  0  0
    9.3119   16.1739   21.7596 C   0  0  0  0  0  0  0  0  0  0  0  0
    7.6241   11.9044   24.7133 N   0  0  0  0  0  0  0  0  0  0  0  0
    6.9027   10.7235   24.7144 O   0  0  0  0  0  0  0  0  0  0  0  0
  1  2  2  0
  2  3  1  0
  3  4  1  0
  4  5  1  0
  5  6  1  0
  6  7  1  0
  7  8  1  0
  8  9  1  0
  9 10  1  0
  2 11  1  0
 11 12  1  0
 10  5  1  0
M  END
>  <tags>  (121) 
{'openbind_a71ev2a_c1_knitwork_pure', 'fragmenstein_placed'}

>  <distance_score>  (121) 
0.979072

>  <ref_mols>  (121) 
A1080a,A3706a

>  <smiles>  (121) 
O=C(CCN1CCCCC1)NO

>  <HIPPO Pose ID>  (121) 
161977

>  <inchikey>  (121) 
QCQBHQXHEXHOGW-UHFFFAOYSA-N

>  <ref_pdb>  (121) 
A0239a

>  <alias>  (121) 
C36518-P207

>  <energy_score>  (121) 
-31.387952

>  <HIPPO Compound ID>  (121) 
49166

$$$$
C63643-P219
     RDKit          3D

 22 23  0  0  0  0  0  0  0  0999 V2000
   12.3014   12.5800   24.2684 O   0  0  0  0  0  0  0  0  0  0  0  0
   11.6705   13.3667   23.7410 C   0  0  0  0  0  0  0  0  0  0  0  0
   12.0884   14.6961   23.0666 N   0  0  0  0  0  0  0  0  0  0  0  0
   13.3859   15.2508   22.8396 C   0  0  0  0  0  0  0  0  0  0  0  0
   13.3983   16.6948   22.3823 C   0  0  0  0  0  0  0  0  0  0  0  0
   13.4001   16.8285   20.8655 C   0  0  0  0  0  0  0  0  0  0  0  0
   12.3548   16.0898   20.1956 N   0  0  0  0  0  0  0  0  0  0  0  0
   12.4961   15.4318   19.0148 C   0  0  0  0  0  0  0  0  0  0  0  0
   11.2693   14.8935   18.7372 C   0  0  0  0  0  0  0  0  0  0  0  0
   10.4503   15.2901   19.8080 C   0  0  0  0  0  0  0  0  0  0  0  0
   11.1095   16.0038   20.7243 N   0  0  0  0  0  0  0  0  0  0  0  0
   10.1291   13.4719   23.5767 N   0  0  0  0  0  0  0  0  0  0  0  0
    9.1177   12.6910   24.1035 C   0  0  0  0  0  0  0  0  0  0  0  0
    8.1072   13.4467   24.5839 N   0  0  0  0  0  0  0  0  0  0  0  0
    7.1432   12.8521   25.3162 C   0  0  0  0  0  0  0  0  0  0  0  0
    7.1129   11.5100   25.5980 C   0  0  0  0  0  0  0  0  0  0  0  0
    8.0872   10.7324   25.0062 C   0  0  0  0  0  0  0  0  0  0  0  0
    9.1086   11.3108   24.2216 C   0  0  0  0  0  0  0  0  0  0  0  0
    9.9534   10.3797   23.4091 C   0  0  0  0  0  0  0  0  0  0  0  0
    9.6625    9.0870   23.7175 F   0  0  0  0  0  0  0  0  0  0  0  0
    9.7201   10.4933   22.0854 F   0  0  0  0  0  0  0  0  0  0  0  0
   11.2781   10.4950   23.5574 F   0  0  0  0  0  0  0  0  0  0  0  0
  1  2  2  0
  2  3  1  0
  3  4  1  0
  4  5  1  0
  5  6  1  0
  6  7  1  0
  7  8  1  0
  8  9  2  0
  9 10  1  0
 10 11  2  0
  2 12  1  0
 12 13  1  0
 13 14  2  0
 14 15  1  0
 15 16  2  0
 16 17  1  0
 17 18  2  0
 18 19  1  0
 19 20  1  0
 19 21  1  0
 19 22  1  0
 11  7  1  0
 18 13  1  0
M  END
>  <tags>  (122) 
{'openbind_a71ev2a_c1_knitwork_pure', 'fragmenstein_placed'}

>  <distance_score>  (122) 
0.869459

>  <ref_mols>  (122) 
A3564a,A0556a

>  <smiles>  (122) 
O=C(NCCCn1cccn1)Nc1ncccc1C(F)(F)F

>  <HIPPO Pose ID>  (122) 
163273

>  <inchikey>  (122) 
WWDQZLGXDWUCRA-UHFFFAOYSA-N

>  <ref_pdb>  (122) 
A0239a

>  <alias>  (122) 
C63643-P219

>  <energy_score>  (122) 
-7.44198

>  <HIPPO Compound ID>  (122) 
65117

$$$$
C102812-P76
     RDKit          3D

 25 27  0  0  0  0  0  0  0  0999 V2000
   14.2060   16.5764    3.9841 C   0  0  0  0  0  0  0  0  0  0  0  0
   13.7254   16.2773    2.5661 C   0  0  1  0  0  0  0  0  0  0  0  0
   14.2490   14.9199    2.0300 C   0  0  0  0  0  0  0  0  0  0  0  0
   15.6912   14.8084    2.0624 N   0  0  0  0  0  0  0  0  0  0  0  0
   16.6346   14.3241    3.1849 C   0  0  0  0  0  0  0  0  0  0  0  0
   16.3929   13.8672    4.2298 O   0  0  0  0  0  0  0  0  0  0  0  0
   18.0506   14.6163    2.8146 C   0  0  0  0  0  0  0  0  0  0  0  0
   19.0556   13.7292    2.9713 N   0  0  0  0  0  0  0  0  0  0  0  0
   20.1713   14.4230    2.6420 N   0  0  0  0  0  0  0  0  0  0  0  0
   21.4754   13.8155    2.8013 C   0  0  0  0  0  0  0  0  0  0  0  0
   19.9243   15.7074    2.2270 C   0  0  0  0  0  0  0  0  0  0  0  0
   20.7716   16.7363    1.7923 C   0  0  0  0  0  0  0  0  0  0  0  0
   20.1900   17.9681    1.4846 C   0  0  0  0  0  0  0  0  0  0  0  0
   18.8200   18.1683    1.6196 C   0  0  0  0  0  0  0  0  0  0  0  0
   17.9892   17.1345    2.0596 C   0  0  0  0  0  0  0  0  0  0  0  0
   18.5486   15.8731    2.3484 C   0  0  0  0  0  0  0  0  0  0  0  0
   12.2713   16.3629    2.5301 N   0  0  0  0  0  0  0  0  0  0  0  0
   11.2726   16.0620    1.3812 C   0  0  0  0  0  0  0  0  0  0  0  0
   11.4666   15.7737    0.2658 O   0  0  0  0  0  0  0  0  0  0  0  0
    9.8438   16.1410    1.9600 C   0  0  0  0  0  0  0  0  0  0  0  0
    9.2767   14.7652    2.0663 C   0  0  0  0  0  0  0  0  0  0  0  0
    8.5298   14.1222    3.0316 C   0  0  0  0  0  0  0  0  0  0  0  0
    8.3667   12.8094    2.5460 C   0  0  0  0  0  0  0  0  0  0  0  0
    8.9378   12.6406    1.3527 N   0  0  0  0  0  0  0  0  0  0  0  0
    9.4456   13.8437    1.0626 N   0  0  0  0  0  0  0  0  0  0  0  0
  2  1  1  1
  2  3  1  0
  3  4  1  0
  4  5  1  0
  5  6  2  0
  5  7  1  0
  7  8  2  0
  8  9  1  0
  9 10  1  0
  9 11  1  0
 11 12  2  0
 12 13  1  0
 13 14  2  0
 14 15  1  0
 15 16  2  0
  2 17  1  0
 17 18  1  0
 18 19  2  0
 18 20  1  0
 20 21  1  0
 21 22  2  0
 22 23  1  0
 23 24  2  0
 24 25  1  0
 16  7  1  0
 25 21  1  0
 16 11  1  0
M  END
>  <tags>  (123) 
{'openbind_a71ev2a_c1_knitwork_pure', 'fragmenstein_placed'}

>  <distance_score>  (123) 
0.930854

>  <ref_mols>  (123) 
A0486a,A0717a

>  <smiles>  (123) 
C[C@@H](CNC(=O)c1nn(C)c2ccccc12)NC(=O)Cc1ccn[nH]1

>  <HIPPO Pose ID>  (123) 
165082

>  <inchikey>  (123) 
XILXUAMRBXUOIG-UHFFFAOYSA-N

>  <ref_pdb>  (123) 
A0239a

>  <alias>  (123) 
C102812-P76

>  <energy_score>  (123) 
-18.737315

>  <HIPPO Compound ID>  (123) 
46587

$$$$
C40513-P76
     RDKit          3D

 25 27  0  0  0  0  0  0  0  0999 V2000
   17.3399   18.7137    1.8638 C   0  0  0  0  0  0  0  0  0  0  0  0
   18.1893   17.4864    2.0465 C   0  0  0  0  0  0  0  0  0  0  0  0
   19.5665   17.5519    1.7708 C   0  0  0  0  0  0  0  0  0  0  0  0
   20.4134   16.4471    1.9446 C   0  0  0  0  0  0  0  0  0  0  0  0
   19.8301   15.2596    2.3940 C   0  0  0  0  0  0  0  0  0  0  0  0
   20.3622   14.0280    2.6844 N   0  0  0  0  0  0  0  0  0  0  0  0
   19.4486   13.1187    3.0822 N   0  0  0  0  0  0  0  0  0  0  0  0
   18.3039   13.8043    3.0801 C   0  0  0  0  0  0  0  0  0  0  0  0
   18.4706   15.1434    2.6619 C   0  0  0  0  0  0  0  0  0  0  0  0
   17.6357   16.2631    2.4817 C   0  0  0  0  0  0  0  0  0  0  0  0
   16.1946   16.0923    2.7927 C   0  0  0  0  0  0  0  0  0  0  0  0
   15.8777   15.8502    3.8864 O   0  0  0  0  0  0  0  0  0  0  0  0
   15.3550   16.1809    1.5085 N   0  0  0  0  0  0  0  0  0  0  0  0
   13.9278   16.0831    1.3121 C   0  0  0  0  0  0  0  0  0  0  0  0
   13.1725   17.3887    1.5996 C   0  0  2  0  0  0  0  0  0  0  0  0
   13.0533   17.6607    3.1020 C   0  0  0  0  0  0  0  0  0  0  0  0
   11.7851   17.3770    0.9322 C   0  0  0  0  0  0  0  0  0  0  0  0
   10.9762   16.2456    1.3006 N   0  0  0  0  0  0  0  0  0  0  0  0
    9.7781   16.1439    2.2591 C   0  0  0  0  0  0  0  0  0  0  0  0
    9.3030   16.9426    2.9615 O   0  0  0  0  0  0  0  0  0  0  0  0
    9.2646   14.7547    2.1951 C   0  0  0  0  0  0  0  0  0  0  0  0
    8.2480   14.1649    2.9901 C   0  0  0  0  0  0  0  0  0  0  0  0
    8.1788   12.8563    2.5800 C   0  0  0  0  0  0  0  0  0  0  0  0
    9.1120   12.7190    1.5992 N   0  0  0  0  0  0  0  0  0  0  0  0
    9.7868   13.8535    1.3327 N   0  0  0  0  0  0  0  0  0  0  0  0
  1  2  1  0
  2  3  2  0
  3  4  1  0
  4  5  2  0
  5  6  1  0
  6  7  1  0
  7  8  2  0
  8  9  1  0
  9 10  2  0
 10 11  1  0
 11 12  2  0
 11 13  1  0
 13 14  1  0
 14 15  1  0
 15 16  1  1
 15 17  1  0
 17 18  1  0
 18 19  1  0
 19 20  2  0
 19 21  1  0
 21 22  1  0
 22 23  2  0
 23 24  1  0
 24 25  1  0
 10  2  1  0
 25 21  2  0
  9  5  1  0
M  END
>  <tags>  (124) 
{'openbind_a71ev2a_c1_knitwork_pure', 'fragmenstein_placed'}

>  <distance_score>  (124) 
0.855036

>  <ref_mols>  (124) 
A0486a,A0717a

>  <smiles>  (124) 
Cc1ccc2[nH]ncc2c1C(=O)NC[C@H](C)CNC(=O)c1cc[nH]n1

>  <HIPPO Pose ID>  (124) 
165204

>  <inchikey>  (124) 
CUEVYSRYKCNYRY-UHFFFAOYSA-N

>  <ref_pdb>  (124) 
A0239a

>  <alias>  (124) 
C40513-P76

>  <energy_score>  (124) 
-15.717695

>  <HIPPO Compound ID>  (124) 
13655

$$$$
C40525-P76
     RDKit          3D

 24 26  0  0  0  0  0  0  0  0999 V2000
   13.4983   18.8220    1.5055 C   0  0  0  0  0  0  0  0  0  0  0  0
   13.8092   17.4623    2.1235 C   0  0  2  0  0  0  0  0  0  0  0  0
   13.2909   17.3132    3.5619 C   0  0  0  0  0  0  0  0  0  0  0  0
   11.7916   17.5466    3.7458 C   0  0  0  0  0  0  0  0  0  0  0  0
   10.9531   16.5501    3.1283 N   0  0  0  0  0  0  0  0  0  0  0  0
    9.4794   16.1777    3.3918 C   0  0  0  0  0  0  0  0  0  0  0  0
    8.6900   16.6692    4.0952 O   0  0  0  0  0  0  0  0  0  0  0  0
    9.1743   14.9330    2.6451 C   0  0  0  0  0  0  0  0  0  0  0  0
    8.0538   14.0806    2.8260 C   0  0  0  0  0  0  0  0  0  0  0  0
    8.2653   13.0160    1.9858 C   0  0  0  0  0  0  0  0  0  0  0  0
    9.4387   13.2706    1.3458 N   0  0  0  0  0  0  0  0  0  0  0  0
   10.0346   14.4147    1.7390 N   0  0  0  0  0  0  0  0  0  0  0  0
   15.2468   17.2308    2.0816 N   0  0  0  0  0  0  0  0  0  0  0  0
   16.0473   15.9169    1.9692 C   0  0  0  0  0  0  0  0  0  0  0  0
   15.6818   14.8206    1.8153 O   0  0  0  0  0  0  0  0  0  0  0  0
   17.5395   16.1426    2.0002 C   0  0  0  0  0  0  0  0  0  0  0  0
   18.1607   17.3268    1.5502 C   0  0  0  0  0  0  0  0  0  0  0  0
   19.5527   17.4768    1.5760 C   0  0  0  0  0  0  0  0  0  0  0  0
   20.3857   16.4488    2.0224 C   0  0  0  0  0  0  0  0  0  0  0  0
   19.7669   15.2631    2.4252 C   0  0  0  0  0  0  0  0  0  0  0  0
   20.2923   14.0745    2.8714 N   0  0  0  0  0  0  0  0  0  0  0  0
   19.3623   13.1529    3.1839 N   0  0  0  0  0  0  0  0  0  0  0  0
   18.2108   13.7634    2.8986 C   0  0  0  0  0  0  0  0  0  0  0  0
   18.3835   15.0883    2.4284 C   0  0  0  0  0  0  0  0  0  0  0  0
  2  1  1  1
  2  3  1  0
  3  4  1  0
  4  5  1  0
  5  6  1  0
  6  7  2  0
  6  8  1  0
  8  9  1  0
  9 10  2  0
 10 11  1  0
 11 12  1  0
  2 13  1  0
 13 14  1  0
 14 15  2  0
 14 16  1  0
 16 17  2  0
 17 18  1  0
 18 19  2  0
 19 20  1  0
 20 21  1  0
 21 22  1  0
 22 23  2  0
 23 24  1  0
 12  8  2  0
 24 16  1  0
 24 20  2  0
M  END
>  <tags>  (125) 
{'openbind_a71ev2a_c1_knitwork_pure', 'fragmenstein_placed'}

>  <distance_score>  (125) 
0.769283

>  <ref_mols>  (125) 
A0486a,A0717a

>  <smiles>  (125) 
C[C@H](CCNC(=O)c1cc[nH]n1)NC(=O)c1cccc2[nH]ncc12

>  <HIPPO Pose ID>  (125) 
165210

>  <inchikey>  (125) 
KULRAFWNQJXNOH-UHFFFAOYSA-N

>  <ref_pdb>  (125) 
A0239a

>  <alias>  (125) 
C40525-P76

>  <energy_score>  (125) 
-17.821986

>  <HIPPO Compound ID>  (125) 
56901

$$$$
C40527-P76
     RDKit          3D

 25 27  0  0  0  0  0  0  0  0999 V2000
   18.3169   18.6831    0.4473 C   0  0  0  0  0  0  0  0  0  0  0  0
   18.8810   17.4812    1.1577 C   0  0  0  0  0  0  0  0  0  0  0  0
   20.1873   17.5433    1.6632 C   0  0  0  0  0  0  0  0  0  0  0  0
   20.7880   16.4447    2.2858 C   0  0  0  0  0  0  0  0  0  0  0  0
   20.0247   15.2815    2.4161 C   0  0  0  0  0  0  0  0  0  0  0  0
   20.3232   14.0590    2.9643 N   0  0  0  0  0  0  0  0  0  0  0  0
   19.2969   13.1858    2.9386 N   0  0  0  0  0  0  0  0  0  0  0  0
   18.3466   13.8475    2.2718 C   0  0  0  0  0  0  0  0  0  0  0  0
   18.7215   15.1718    1.9409 C   0  0  0  0  0  0  0  0  0  0  0  0
   18.1498   16.2746    1.2687 C   0  0  0  0  0  0  0  0  0  0  0  0
   16.8283   16.1335    0.6032 C   0  0  0  0  0  0  0  0  0  0  0  0
   16.7603   16.3506   -0.5378 O   0  0  0  0  0  0  0  0  0  0  0  0
   15.7332   15.7584    1.6119 N   0  0  0  0  0  0  0  0  0  0  0  0
   14.3249   15.4758    1.4119 C   0  0  1  0  0  0  0  0  0  0  0  0
   13.9094   14.2922    2.2733 C   0  0  0  0  0  0  0  0  0  0  0  0
   13.4938   16.7413    1.6833 C   0  0  0  0  0  0  0  0  0  0  0  0
   12.2723   16.8826    0.7744 C   0  0  0  0  0  0  0  0  0  0  0  0
   11.2319   15.9310    1.0453 N   0  0  0  0  0  0  0  0  0  0  0  0
   10.1985   15.8778    2.1814 C   0  0  0  0  0  0  0  0  0  0  0  0
    9.9760   16.6375    3.0357 O   0  0  0  0  0  0  0  0  0  0  0  0
    9.4770   14.5874    2.0889 C   0  0  0  0  0  0  0  0  0  0  0  0
    8.4453   14.1044    2.9361 C   0  0  0  0  0  0  0  0  0  0  0  0
    8.1770   12.8333    2.4917 C   0  0  0  0  0  0  0  0  0  0  0  0
    9.0146   12.6173    1.4411 N   0  0  0  0  0  0  0  0  0  0  0  0
    9.8100   13.6654    1.1602 N   0  0  0  0  0  0  0  0  0  0  0  0
  1  2  1  0
  2  3  2  0
  3  4  1  0
  4  5  2  0
  5  6  1  0
  6  7  1  0
  7  8  2  0
  8  9  1  0
  9 10  2  0
 10 11  1  0
 11 12  2  0
 11 13  1  0
 13 14  1  0
 14 15  1  1
 14 16  1  0
 16 17  1  0
 17 18  1  0
 18 19  1  0
 19 20  2  0
 19 21  1  0
 21 22  1  0
 22 23  2  0
 23 24  1  0
 24 25  1  0
 10  2  1  0
 25 21  2  0
  9  5  1  0
M  END
>  <tags>  (126) 
{'openbind_a71ev2a_c1_knitwork_pure', 'fragmenstein_placed'}

>  <distance_score>  (126) 
0.986777

>  <ref_mols>  (126) 
A0486a,A0717a

>  <smiles>  (126) 
Cc1ccc2[nH]ncc2c1C(=O)N[C@@H](C)CCNC(=O)c1cc[nH]n1

>  <HIPPO Pose ID>  (126) 
165211

>  <inchikey>  (126) 
GFDFFRLXIZNDDL-UHFFFAOYSA-N

>  <ref_pdb>  (126) 
A0239a

>  <alias>  (126) 
C40527-P76

>  <energy_score>  (126) 
-22.087702

>  <HIPPO Compound ID>  (126) 
51495

$$$$
C102839-P76
     RDKit          3D

 25 27  0  0  0  0  0  0  0  0999 V2000
   15.3157   18.3986    1.4089 O   0  0  0  0  0  0  0  0  0  0  0  0
   15.8143   18.6917    2.4245 C   0  0  0  0  0  0  0  0  0  0  0  0
   17.3390   18.8411    2.5647 C   0  0  0  0  0  0  0  0  0  0  0  0
   18.1450   17.5613    2.4512 C   0  0  0  0  0  0  0  0  0  0  0  0
   19.5111   17.6444    2.1212 C   0  0  0  0  0  0  0  0  0  0  0  0
   20.3444   16.5168    2.1066 C   0  0  0  0  0  0  0  0  0  0  0  0
   19.7591   15.2945    2.4438 C   0  0  0  0  0  0  0  0  0  0  0  0
   20.2817   14.0327    2.5780 N   0  0  0  0  0  0  0  0  0  0  0  0
   19.3747   13.0989    2.9363 N   0  0  0  0  0  0  0  0  0  0  0  0
   18.2382   13.7926    3.0309 C   0  0  0  0  0  0  0  0  0  0  0  0
   18.4117   15.1662    2.7561 C   0  0  0  0  0  0  0  0  0  0  0  0
   17.5904   16.3080    2.7644 C   0  0  0  0  0  0  0  0  0  0  0  0
   15.1730   19.0345    3.8001 N   0  0  0  0  0  0  0  0  0  0  0  0
   13.7809   19.1791    4.1796 C   0  0  0  0  0  0  0  0  0  0  0  0
   13.0362   17.8336    4.2665 C   0  0  1  0  0  0  0  0  0  0  0  0
   13.3913   17.2072    5.5201 O   0  0  0  0  0  0  0  0  0  0  0  0
   11.5111   18.0544    4.1400 C   0  0  0  0  0  0  0  0  0  0  0  0
   10.7998   16.8915    3.6483 N   0  0  0  0  0  0  0  0  0  0  0  0
    9.3758   16.3833    3.9564 C   0  0  0  0  0  0  0  0  0  0  0  0
    8.5798   16.7773    4.7122 O   0  0  0  0  0  0  0  0  0  0  0  0
    9.1142   15.1860    3.1124 C   0  0  0  0  0  0  0  0  0  0  0  0
    8.0530   14.2516    3.2465 C   0  0  0  0  0  0  0  0  0  0  0  0
    8.2835   13.2923    2.2911 C   0  0  0  0  0  0  0  0  0  0  0  0
    9.4110   13.6802    1.6349 N   0  0  0  0  0  0  0  0  0  0  0  0
    9.9555   14.8168    2.1181 N   0  0  0  0  0  0  0  0  0  0  0  0
  1  2  2  0
  2  3  1  0
  3  4  1  0
  4  5  2  0
  5  6  1  0
  6  7  2  0
  7  8  1  0
  8  9  1  0
  9 10  2  0
 10 11  1  0
 11 12  2  0
  2 13  1  0
 13 14  1  0
 14 15  1  0
 15 16  1  1
 15 17  1  0
 17 18  1  0
 18 19  1  0
 19 20  2  0
 19 21  1  0
 21 22  1  0
 22 23  2  0
 23 24  1  0
 24 25  1  0
 12  4  1  0
 25 21  2  0
 11  7  1  0
M  END
>  <tags>  (127) 
{'openbind_a71ev2a_c1_knitwork_pure', 'fragmenstein_placed'}

>  <distance_score>  (127) 
0.866949

>  <ref_mols>  (127) 
A0486a,A0717a

>  <smiles>  (127) 
O=C(Cc1ccc2[nH]ncc2c1)NC[C@@H](O)CNC(=O)c1cc[nH]n1

>  <HIPPO Pose ID>  (127) 
165257

>  <inchikey>  (127) 
XZIKUBYEVMCBKL-UHFFFAOYSA-N

>  <ref_pdb>  (127) 
A0239a

>  <alias>  (127) 
C102839-P76

>  <energy_score>  (127) 
-15.353598

>  <HIPPO Compound ID>  (127) 
102839

$$$$
C45903-P363
     RDKit          3D

 21 23  0  0  0  0  0  0  0  0999 V2000
   24.7872   18.5885   25.6763 O   0  0  0  0  0  0  0  0  0  0  0  0
   23.9858   18.0681   24.6087 C   0  0  2  0  0  0  0  0  0  0  0  0
   24.2914   18.8486   23.3257 C   0  0  0  0  0  0  0  0  0  0  0  0
   25.7884   18.8694   23.0343 C   0  0  0  0  0  0  0  0  0  0  0  0
   26.0544   19.2449   21.6470 N   0  0  0  0  0  0  0  0  0  0  0  0
   26.5848   20.5263   21.4633 C   0  0  0  0  0  0  0  0  0  0  0  0
   25.8902   21.6451   21.8439 C   0  0  0  0  0  0  0  0  0  0  0  0
   26.5419   22.8315   21.6627 C   0  0  0  0  0  0  0  0  0  0  0  0
   27.7793   22.9284   21.1525 N   0  0  0  0  0  0  0  0  0  0  0  0
   28.3898   21.7926   20.7690 C   0  0  0  0  0  0  0  0  0  0  0  0
   29.7054   21.8761   20.2760 N   0  0  0  0  0  0  0  0  0  0  0  0
   30.0739   20.7522   19.4193 C   0  0  0  0  0  0  0  0  0  0  0  0
   31.5609   20.7969   19.0745 C   0  0  0  0  0  0  0  0  0  0  0  0
   31.9501   22.1449   18.4813 C   0  0  0  0  0  0  0  0  0  0  0  0
   31.5419   23.2700   19.4245 C   0  0  0  0  0  0  0  0  0  0  0  0
   30.0537   23.2050   19.7715 C   0  0  0  0  0  0  0  0  0  0  0  0
   27.7986   20.5903   20.8888 N   0  0  0  0  0  0  0  0  0  0  0  0
   22.5130   18.2253   24.9921 C   0  0  0  0  0  0  0  0  0  0  0  0
   21.4701   17.5316   24.0771 C   0  0  0  0  0  0  0  0  0  0  0  0
   21.4905   16.3348   25.0452 C   0  0  0  0  0  0  0  0  0  0  0  0
   21.9915   17.3025   26.1310 C   0  0  0  0  0  0  0  0  0  0  0  0
  2  1  1  1
  2  3  1  0
  3  4  1  0
  4  5  1  0
  5  6  1  0
  6  7  2  0
  7  8  1  0
  8  9  2  0
  9 10  1  0
 10 11  1  0
 11 12  1  0
 12 13  1  0
 13 14  1  0
 14 15  1  0
 15 16  1  0
 10 17  2  0
  2 18  1  0
 18 19  1  0
 19 20  1  0
 20 21  1  0
 17  6  1  0
 21 18  1  0
 16 11  1  0
M  END
>  <tags>  (128) 
{'openbind_a71ev2a_c1_knitwork_pure', 'fragmenstein_placed'}

>  <distance_score>  (128) 
0.587881

>  <ref_mols>  (128) 
A4445a,A1146a

>  <smiles>  (128) 
O[C@H](CCNc1ccnc(N2CCCCC2)n1)C1CCC1

>  <HIPPO Pose ID>  (128) 
165980

>  <inchikey>  (128) 
ZUHBPFRFPPEFBP-UHFFFAOYSA-N

>  <ref_pdb>  (128) 
A0239a

>  <alias>  (128) 
C45903-P363

>  <energy_score>  (128) 
-56.436585

>  <HIPPO Compound ID>  (128) 
57140

$$$$
C51842-P135
     RDKit          3D

 13 13  0  0  0  0  0  0  0  0999 V2000
   10.1638    8.3395   23.1124 C   0  0  0  0  0  0  0  0  0  0  0  0
   10.5771    9.6414   23.4487 O   0  0  0  0  0  0  0  0  0  0  0  0
    9.5574   10.4056   23.9460 C   0  0  0  0  0  0  0  0  0  0  0  0
    8.6521    9.8886   24.8072 N   0  0  0  0  0  0  0  0  0  0  0  0
    7.7537   10.7497   25.3278 C   0  0  0  0  0  0  0  0  0  0  0  0
    7.6990   12.0898   24.9976 C   0  0  0  0  0  0  0  0  0  0  0  0
    8.6243   12.5867   24.0745 C   0  0  0  0  0  0  0  0  0  0  0  0
    8.5179   14.0019   23.6005 C   0  0  2  0  0  0  0  0  0  0  0  0
    7.3391   14.2150   22.6682 C   0  0  0  0  0  0  0  0  0  0  0  0
    9.7705   14.4674   22.9275 C   0  0  0  0  0  0  0  0  0  0  0  0
   10.5225   15.2766   23.4453 O   0  0  0  0  0  0  0  0  0  0  0  0
    9.6002   11.7264   23.5862 C   0  0  0  0  0  0  0  0  0  0  0  0
   10.5556   12.1387   22.7451 F   0  0  0  0  0  0  0  0  0  0  0  0
  1  2  1  0
  2  3  1  0
  3  4  2  0
  4  5  1  0
  5  6  2  0
  6  7  1  0
  7  8  1  0
  8  9  1  6
  8 10  1  0
 10 11  2  0
  7 12  2  0
 12 13  1  0
 12  3  1  0
M  END
>  <tags>  (129) 
{'openbind_a71ev2a_c1_knitwork_pure', 'fragmenstein_placed'}

>  <distance_score>  (129) 
0.830674

>  <ref_mols>  (129) 
A4526a,A2629a

>  <smiles>  (129) 
COc1nccc([C@H](C)C=O)c1F

>  <HIPPO Pose ID>  (129) 
166072

>  <inchikey>  (129) 
NPOXOZWYVHTEHK-UHFFFAOYSA-N

>  <ref_pdb>  (129) 
A0239a

>  <alias>  (129) 
C51842-P135

>  <energy_score>  (129) 
-9.358178

>  <HIPPO Compound ID>  (129) 
40538

$$$$
C51851-P135
     RDKit          3D

 13 13  0  0  0  0  0  0  0  0999 V2000
   10.0458    8.7726   22.7238 C   0  0  0  0  0  0  0  0  0  0  0  0
   10.5493    9.9609   23.3309 O   0  0  0  0  0  0  0  0  0  0  0  0
    9.6109   10.8094   23.8383 C   0  0  0  0  0  0  0  0  0  0  0  0
    8.5921   10.3371   24.6552 C   0  0  0  0  0  0  0  0  0  0  0  0
    7.6947   11.2422   25.1655 C   0  0  0  0  0  0  0  0  0  0  0  0
    7.7045   12.5375   24.8284 N   0  0  0  0  0  0  0  0  0  0  0  0
    8.7065   12.9703   24.0193 C   0  0  0  0  0  0  0  0  0  0  0  0
    8.3469   14.5336   23.4151 Cl  0  0  0  0  0  0  0  0  0  0  0  0
    9.7506   12.1765   23.5585 C   0  0  0  0  0  0  0  0  0  0  0  0
   11.0313   12.6592   22.9028 C   0  0  2  0  0  0  0  0  0  0  0  0
   12.1217   12.8524   23.9581 C   0  0  0  0  0  0  0  0  0  0  0  0
   10.9743   13.9089   22.0809 C   0  0  0  0  0  0  0  0  0  0  0  0
   11.2179   15.0153   22.5532 O   0  0  0  0  0  0  0  0  0  0  0  0
  1  2  1  0
  2  3  1  0
  3  4  2  0
  4  5  1  0
  5  6  2  0
  6  7  1  0
  7  8  1  0
  7  9  2  0
  9 10  1  0
 10 11  1  1
 10 12  1  0
 12 13  2  0
  9  3  1  0
M  END
>  <tags>  (130) 
{'openbind_a71ev2a_c1_knitwork_pure', 'fragmenstein_placed'}

>  <distance_score>  (130) 
0.614337

>  <ref_mols>  (130) 
A4526a,A2629a

>  <smiles>  (130) 
COc1ccnc(Cl)c1[C@H](C)C=O

>  <HIPPO Pose ID>  (130) 
166082

>  <inchikey>  (130) 
FSKMWAXPTGYBAB-UHFFFAOYSA-N

>  <ref_pdb>  (130) 
A0239a

>  <alias>  (130) 
C51851-P135

>  <energy_score>  (130) 
-13.82318

>  <HIPPO Compound ID>  (130) 
50865

$$$$
C51859-P135
     RDKit          3D

 13 13  0  0  0  0  0  0  0  0999 V2000
   10.0511    8.7753   22.7040 C   0  0  0  0  0  0  0  0  0  0  0  0
   10.5168   10.0160   23.2229 O   0  0  0  0  0  0  0  0  0  0  0  0
    9.5894   10.7992   23.8450 C   0  0  0  0  0  0  0  0  0  0  0  0
    8.5995   10.2522   24.6486 C   0  0  0  0  0  0  0  0  0  0  0  0
    7.7021   11.1037   25.2420 C   0  0  0  0  0  0  0  0  0  0  0  0
    7.6948   12.4202   25.0118 N   0  0  0  0  0  0  0  0  0  0  0  0
    8.6651   12.9329   24.2220 C   0  0  0  0  0  0  0  0  0  0  0  0
    8.4026   14.2235   23.9154 O   0  0  0  0  0  0  0  0  0  0  0  0
    9.7013   12.1886   23.6653 C   0  0  0  0  0  0  0  0  0  0  0  0
   10.9344   12.7193   22.9515 C   0  0  2  0  0  0  0  0  0  0  0  0
   12.0995   12.8604   23.9282 C   0  0  0  0  0  0  0  0  0  0  0  0
   10.8295   14.0381   22.2585 C   0  0  0  0  0  0  0  0  0  0  0  0
   10.4521   15.0488   22.8507 O   0  0  0  0  0  0  0  0  0  0  0  0
  1  2  1  0
  2  3  1  0
  3  4  2  0
  4  5  1  0
  5  6  2  0
  6  7  1  0
  7  8  1  0
  7  9  2  0
  9 10  1  0
 10 11  1  1
 10 12  1  0
 12 13  2  0
  9  3  1  0
M  END
>  <tags>  (131) 
{'openbind_a71ev2a_c1_knitwork_pure', 'fragmenstein_placed'}

>  <distance_score>  (131) 
0.656105

>  <ref_mols>  (131) 
A4526a,A2629a

>  <smiles>  (131) 
COc1ccnc(O)c1[C@H](C)C=O

>  <HIPPO Pose ID>  (131) 
166092

>  <inchikey>  (131) 
BGYVPCNSURXTSF-UHFFFAOYSA-N

>  <ref_pdb>  (131) 
A0239a

>  <alias>  (131) 
C51859-P135

>  <energy_score>  (131) 
-20.211264

>  <HIPPO Compound ID>  (131) 
8079

$$$$
C51872-P391
     RDKit          3D

 13 13  0  0  0  0  0  0  0  0999 V2000
   10.0239    8.8383   23.3758 C   0  0  0  0  0  0  0  0  0  0  0  0
   10.1631   10.2256   23.1815 O   0  0  0  0  0  0  0  0  0  0  0  0
    9.2870   11.0215   23.8536 C   0  0  0  0  0  0  0  0  0  0  0  0
    9.3068   12.3513   23.4696 C   0  0  0  0  0  0  0  0  0  0  0  0
    8.4428   13.2505   24.0959 C   0  0  0  0  0  0  0  0  0  0  0  0
    8.2045   14.6215   23.4964 C   0  0  2  0  0  0  0  0  0  0  0  0
    7.0478   14.5225   22.4981 C   0  0  0  0  0  0  0  0  0  0  0  0
    9.4297   15.2130   22.8290 C   0  0  0  0  0  0  0  0  0  0  0  0
    9.5118   15.4601   21.6307 O   0  0  0  0  0  0  0  0  0  0  0  0
    7.6699   12.7647   25.1552 C   0  0  0  0  0  0  0  0  0  0  0  0
    6.7162   13.7874   26.1551 Cl  0  0  0  0  0  0  0  0  0  0  0  0
    7.6850   11.4019   25.4239 C   0  0  0  0  0  0  0  0  0  0  0  0
    8.4809   10.5123   24.7998 N   0  0  0  0  0  0  0  0  0  0  0  0
  1  2  1  0
  2  3  1  0
  3  4  2  0
  4  5  1  0
  5  6  1  0
  6  7  1  6
  6  8  1  0
  8  9  2  0
  5 10  2  0
 10 11  1  0
 10 12  1  0
 12 13  2  0
 13  3  1  0
M  END
>  <tags>  (132) 
{'openbind_a71ev2a_c1_knitwork_pure', 'fragmenstein_placed'}

>  <distance_score>  (132) 
0.885599

>  <ref_mols>  (132) 
A4526a,A2629a

>  <smiles>  (132) 
COc1cc([C@H](C)C=O)c(Cl)cn1

>  <HIPPO Pose ID>  (132) 
166109

>  <inchikey>  (132) 
IYQGGEDPMPIKFJ-UHFFFAOYSA-N

>  <ref_pdb>  (132) 
A0239a

>  <alias>  (132) 
C51872-P391

>  <energy_score>  (132) 
-14.302438

>  <HIPPO Compound ID>  (132) 
51268

$$$$
C51876-P135
     RDKit          3D

 13 13  0  0  0  0  0  0  0  0999 V2000
   10.0704    8.7354   22.8312 C   0  0  0  0  0  0  0  0  0  0  0  0
   10.5825    9.7738   23.6587 O   0  0  0  0  0  0  0  0  0  0  0  0
    9.5819   10.6079   24.0664 C   0  0  0  0  0  0  0  0  0  0  0  0
    8.6961   10.0960   24.9528 N   0  0  0  0  0  0  0  0  0  0  0  0
    7.7220   10.9127   25.3834 C   0  0  0  0  0  0  0  0  0  0  0  0
    7.5352   12.1878   24.8927 C   0  0  0  0  0  0  0  0  0  0  0  0
    8.4156   12.6742   23.9173 C   0  0  0  0  0  0  0  0  0  0  0  0
    8.1004   13.9129   23.1124 C   0  0  1  0  0  0  0  0  0  0  0  0
    6.6210   14.2680   23.0182 C   0  0  0  0  0  0  0  0  0  0  0  0
    8.9028   15.1010   23.5351 C   0  0  0  0  0  0  0  0  0  0  0  0
    8.7904   16.1791   22.9607 O   0  0  0  0  0  0  0  0  0  0  0  0
    9.5492   11.9126   23.6084 C   0  0  0  0  0  0  0  0  0  0  0  0
   10.8633   12.5723   22.7136 Cl  0  0  0  0  0  0  0  0  0  0  0  0
  1  2  1  0
  2  3  1  0
  3  4  2  0
  4  5  1  0
  5  6  2  0
  6  7  1  0
  7  8  1  0
  8  9  1  1
  8 10  1  0
 10 11  2  0
  7 12  2  0
 12 13  1  0
 12  3  1  0
M  END
>  <tags>  (133) 
{'openbind_a71ev2a_c1_knitwork_pure', 'fragmenstein_placed'}

>  <distance_score>  (133) 
0.883195

>  <ref_mols>  (133) 
A4526a,A2629a

>  <smiles>  (133) 
COc1nccc([C@@H](C)C=O)c1Cl

>  <HIPPO Pose ID>  (133) 
166114

>  <inchikey>  (133) 
NVVHARBSTPILPF-UHFFFAOYSA-N

>  <ref_pdb>  (133) 
A0239a

>  <alias>  (133) 
C51876-P135

>  <energy_score>  (133) 
-11.111289

>  <HIPPO Compound ID>  (133) 
48106

$$$$
C45780-P328
     RDKit          3D

 19 21  0  0  0  0  0  0  0  0999 V2000
    7.3419   13.1341   22.4271 O   0  0  0  0  0  0  0  0  0  0  0  0
    8.0315   14.1481   23.2008 S   0  0  0  0  0  0  0  0  0  0  0  0
    7.4508   15.4570   23.4094 O   0  0  0  0  0  0  0  0  0  0  0  0
    9.6290   14.3467   22.4535 C   0  0  2  0  0  0  0  0  0  0  0  0
   10.6778   14.9626   23.3725 C   0  0  0  0  0  0  0  0  0  0  0  0
   11.9861   15.0341   22.6023 C   0  0  0  0  0  0  0  0  0  0  0  0
   11.8302   15.8174   21.3025 C   0  0  0  0  0  0  0  0  0  0  0  0
   10.7764   15.2603   20.4508 N   0  0  0  0  0  0  0  0  0  0  0  0
    9.5000   15.1791   21.1782 C   0  0  0  0  0  0  0  0  0  0  0  0
    8.4970   13.5004   24.7389 N   0  0  0  0  0  0  0  0  0  0  0  0
    8.2485   14.4575   25.8798 C   0  0  0  0  0  0  0  0  0  0  0  0
    6.8576   14.0787   26.4298 C   0  0  0  0  0  0  0  0  0  0  0  0
    6.8015   12.6320   26.0643 C   0  0  0  0  0  0  0  0  0  0  0  0
    5.9458   11.6495   26.5037 C   0  0  0  0  0  0  0  0  0  0  0  0
    4.9998   11.9215   27.4108 F   0  0  0  0  0  0  0  0  0  0  0  0
    6.1010   10.3513   26.0258 C   0  0  0  0  0  0  0  0  0  0  0  0
    7.1178   10.0480   25.1052 C   0  0  0  0  0  0  0  0  0  0  0  0
    7.9516   11.0509   24.6174 C   0  0  0  0  0  0  0  0  0  0  0  0
    7.7654   12.3279   25.1078 C   0  0  0  0  0  0  0  0  0  0  0  0
  1  2  2  0
  2  3  2  0
  4  2  1  1
  4  5  1  0
  5  6  1  0
  6  7  1  0
  7  8  1  0
  8  9  1  0
  2 10  1  0
 10 11  1  0
 11 12  1  0
 12 13  1  0
 13 14  2  0
 14 15  1  0
 14 16  1  0
 16 17  2  0
 17 18  1  0
 18 19  2  0
  9  4  1  0
 19 10  1  0
 19 13  1  0
M  END
>  <tags>  (134) 
{'openbind_a71ev2a_c1_knitwork_pure', 'fragmenstein_placed'}

>  <distance_score>  (134) 
0.667475

>  <ref_mols>  (134) 
A4374a,A1778a

>  <smiles>  (134) 
O=S(=O)([C@@H]1CCCNC1)N1CCc2c(F)cccc21

>  <HIPPO Pose ID>  (134) 
167674

>  <inchikey>  (134) 
GANHUCHPQYNYPW-UHFFFAOYSA-N

>  <ref_pdb>  (134) 
A0239a

>  <alias>  (134) 
C45780-P328

>  <energy_score>  (134) 
-39.18149

>  <HIPPO Compound ID>  (134) 
98884

$$$$
C50807-P183
     RDKit          3D

 20 21  0  0  0  0  0  0  0  0999 V2000
   10.2178   14.1270   25.2722 O   0  0  0  0  0  0  0  0  0  0  0  0
   10.1727   13.5093   24.2851 C   0  0  0  0  0  0  0  0  0  0  0  0
   10.9911   13.6383   22.9910 N   0  0  0  0  0  0  0  0  0  0  0  0
   11.9703   14.6102   22.6008 C   0  0  0  0  0  0  0  0  0  0  0  0
   12.1093   14.6852   21.0881 C   0  0  0  0  0  0  0  0  0  0  0  0
   10.9215   15.2613   20.4124 C   0  0  0  0  0  0  0  0  0  0  0  0
   10.6673   15.3538   19.0316 C   0  0  0  0  0  0  0  0  0  0  0  0
    9.5885   16.0942   18.7684 N   0  0  0  0  0  0  0  0  0  0  0  0
    9.1944   16.5351   19.9687 N   0  0  0  0  0  0  0  0  0  0  0  0
    9.8529   15.9153   20.9761 C   0  0  0  0  0  0  0  0  0  0  0  0
    9.2530   12.3276   24.2600 C   0  0  0  0  0  0  0  0  0  0  0  0
    8.1725   12.2762   25.1329 C   0  0  0  0  0  0  0  0  0  0  0  0
    7.5812   11.0500   25.3668 C   0  0  0  0  0  0  0  0  0  0  0  0
    7.9976    9.8969   24.7961 N   0  0  0  0  0  0  0  0  0  0  0  0
    8.9846    9.9714   23.8564 C   0  0  0  0  0  0  0  0  0  0  0  0
    9.4678    8.7523   23.0712 C   0  0  0  0  0  0  0  0  0  0  0  0
    9.9081    9.1106   21.8349 F   0  0  0  0  0  0  0  0  0  0  0  0
    8.5166    7.8243   22.8650 F   0  0  0  0  0  0  0  0  0  0  0  0
   10.5185    8.1162   23.6504 F   0  0  0  0  0  0  0  0  0  0  0  0
    9.6100   11.1751   23.5704 C   0  0  0  0  0  0  0  0  0  0  0  0
  1  2  2  0
  2  3  1  0
  3  4  1  0
  4  5  1  0
  5  6  1  0
  6  7  1  0
  7  8  2  0
  8  9  1  0
  9 10  1  0
  2 11  1  0
 11 12  2  0
 12 13  1  0
 13 14  2  0
 14 15  1  0
 15 16  1  0
 16 17  1  0
 16 18  1  0
 16 19  1  0
 15 20  2  0
 10  6  2  0
 20 11  1  0
M  END
>  <tags>  (135) 
{'openbind_a71ev2a_c1_knitwork_pure', 'fragmenstein_placed'}

>  <distance_score>  (135) 
0.546946

>  <ref_mols>  (135) 
A0556a,A3436a

>  <smiles>  (135) 
O=C(NCCc1cn[nH]c1)c1ccnc(C(F)(F)F)c1

>  <HIPPO Pose ID>  (135) 
168207

>  <inchikey>  (135) 
LZSDVVWDNGTYCM-UHFFFAOYSA-N

>  <ref_pdb>  (135) 
A0239a

>  <alias>  (135) 
C50807-P183

>  <energy_score>  (135) 
-4.350803

>  <HIPPO Compound ID>  (135) 
53866

$$$$
C50814-P183
     RDKit          3D

 17 18  0  0  0  0  0  0  0  0999 V2000
    6.4461   10.7502   26.1671 N   0  0  0  0  0  0  0  0  0  0  0  0
    7.5670   10.7931   25.3364 C   0  0  0  0  0  0  0  0  0  0  0  0
    8.1391   12.0103   25.0303 C   0  0  0  0  0  0  0  0  0  0  0  0
    9.2101   12.0451   24.1433 C   0  0  0  0  0  0  0  0  0  0  0  0
   10.0232   13.3016   24.1142 C   0  0  0  0  0  0  0  0  0  0  0  0
    9.9493   13.9902   25.0506 O   0  0  0  0  0  0  0  0  0  0  0  0
   10.8997   13.4169   22.8633 N   0  0  0  0  0  0  0  0  0  0  0  0
   11.9406   14.3498   22.5362 C   0  0  0  0  0  0  0  0  0  0  0  0
   12.0946   14.5739   21.0413 C   0  0  0  0  0  0  0  0  0  0  0  0
   10.9156   15.2120   20.4092 C   0  0  0  0  0  0  0  0  0  0  0  0
   10.6504   15.3738   19.0375 C   0  0  0  0  0  0  0  0  0  0  0  0
    9.5768   16.1350   18.8190 N   0  0  0  0  0  0  0  0  0  0  0  0
    9.1921   16.5181   20.0433 N   0  0  0  0  0  0  0  0  0  0  0  0
    9.8650   15.8570   21.0159 C   0  0  0  0  0  0  0  0  0  0  0  0
    9.5830   10.8711   23.4981 C   0  0  0  0  0  0  0  0  0  0  0  0
    8.9852    9.6917   23.8895 C   0  0  0  0  0  0  0  0  0  0  0  0
    8.0074    9.6422   24.8162 N   0  0  0  0  0  0  0  0  0  0  0  0
  1  2  1  0
  2  3  2  0
  3  4  1  0
  4  5  1  0
  5  6  2  0
  5  7  1  0
  7  8  1  0
  8  9  1  0
  9 10  1  0
 10 11  1  0
 11 12  2  0
 12 13  1  0
 13 14  1  0
  4 15  2  0
 15 16  1  0
 16 17  2  0
 17  2  1  0
 14 10  2  0
M  END
>  <tags>  (136) 
{'openbind_a71ev2a_c1_knitwork_pure', 'fragmenstein_placed'}

>  <distance_score>  (136) 
0.699381

>  <ref_mols>  (136) 
A0556a,A3436a

>  <smiles>  (136) 
Nc1cc(C(=O)NCCc2cn[nH]c2)ccn1

>  <HIPPO Pose ID>  (136) 
168217

>  <inchikey>  (136) 
REJJTMAGDYDVGV-UHFFFAOYSA-N

>  <ref_pdb>  (136) 
A0239a

>  <alias>  (136) 
C50814-P183

>  <energy_score>  (136) 
-3.994442

>  <HIPPO Compound ID>  (136) 
48513

$$$$
C66327-P229
     RDKit          3D

 18 20  0  0  0  0  0  0  0  0999 V2000
   10.2340   12.7779   25.4825 O   0  0  0  0  0  0  0  0  0  0  0  0
    9.2733   12.7993   24.8289 C   0  0  0  0  0  0  0  0  0  0  0  0
    8.9323   13.6347   23.5938 N   0  0  0  0  0  0  0  0  0  0  0  0
    9.6719   14.7064   22.9429 C   0  0  0  0  0  0  0  0  0  0  0  0
   11.1801   14.5430   23.1808 C   0  0  0  0  0  0  0  0  0  0  0  0
   11.9805   15.5554   22.3819 C   0  0  0  0  0  0  0  0  0  0  0  0
   11.6581   15.4472   20.9701 N   0  0  0  0  0  0  0  0  0  0  0  0
   10.2549   15.7523   20.7169 C   0  0  0  0  0  0  0  0  0  0  0  0
    9.3588   14.7583   21.4490 C   0  0  0  0  0  0  0  0  0  0  0  0
    8.2242   11.8154   25.1474 C   0  0  0  0  0  0  0  0  0  0  0  0
    7.1806   12.2221   25.9829 C   0  0  0  0  0  0  0  0  0  0  0  0
    6.3035   11.2680   26.4745 C   0  0  0  0  0  0  0  0  0  0  0  0
    6.5166    9.9509   26.1178 C   0  0  0  0  0  0  0  0  0  0  0  0
    7.5191    9.5372   25.3048 N   0  0  0  0  0  0  0  0  0  0  0  0
    8.3867   10.4651   24.7969 C   0  0  0  0  0  0  0  0  0  0  0  0
    9.5198   10.0052   23.8833 C   0  0  0  0  0  0  0  0  0  0  0  0
    9.3144    9.0176   22.7643 C   0  0  0  0  0  0  0  0  0  0  0  0
   10.0521    8.5925   23.9565 C   0  0  0  0  0  0  0  0  0  0  0  0
  1  2  2  0
  2  3  1  0
  3  4  1  0
  4  5  1  0
  5  6  1  0
  6  7  1  0
  7  8  1  0
  8  9  1  0
  2 10  1  0
 10 11  2  0
 11 12  1  0
 12 13  2  0
 13 14  1  0
 14 15  2  0
 15 16  1  0
 16 17  1  0
 17 18  1  0
  9  4  1  0
 15 10  1  0
 18 16  1  0
M  END
>  <tags>  (137) 
{'openbind_a71ev2a_c1_knitwork_pure', 'fragmenstein_placed'}

>  <distance_score>  (137) 
0.961172

>  <ref_mols>  (137) 
A3869a,A0875a

>  <smiles>  (137) 
O=C(NC1CCNCC1)c1cccnc1C1CC1

>  <HIPPO Pose ID>  (137) 
171126

>  <inchikey>  (137) 
APTDDJHCLKZSQW-UHFFFAOYSA-N

>  <ref_pdb>  (137) 
A5079b

>  <alias>  (137) 
C66327-P229

>  <energy_score>  (137) 
-8.804836

>  <HIPPO Compound ID>  (137) 
60642

$$$$
C51400-P344
     RDKit          3D

 19 19  0  0  0  0  0  0  0  0999 V2000
    9.4325    8.7431   23.1002 C   0  0  0  0  0  0  0  0  0  0  0  0
    9.5730   10.1303   23.3384 O   0  0  0  0  0  0  0  0  0  0  0  0
    8.7401   10.7197   24.2427 C   0  0  0  0  0  0  0  0  0  0  0  0
    7.8611   10.0815   25.1020 C   0  0  0  0  0  0  0  0  0  0  0  0
    7.0262   10.8473   25.9135 C   0  0  0  0  0  0  0  0  0  0  0  0
    7.1340   12.2292   25.8535 C   0  0  0  0  0  0  0  0  0  0  0  0
    5.9433   13.2954   26.8574 Br  0  0  0  0  0  0  0  0  0  0  0  0
    8.0307   12.8713   25.0879 N   0  0  0  0  0  0  0  0  0  0  0  0
    8.7816   12.1138   24.2774 C   0  0  0  0  0  0  0  0  0  0  0  0
    9.5466   12.7221   23.3109 N   0  0  0  0  0  0  0  0  0  0  0  0
    9.8891   14.2146   23.0929 C   0  0  0  0  0  0  0  0  0  0  0  0
    9.6395   15.1493   23.7422 O   0  0  0  0  0  0  0  0  0  0  0  0
   10.5650   14.2259   21.7397 C   0  0  0  0  0  0  0  0  0  0  0  0
   10.8126   15.6285   21.2165 C   0  0  1  0  0  0  0  0  0  0  0  0
   12.1857   16.0960   21.6747 C   0  0  0  0  0  0  0  0  0  0  0  0
   10.6282   15.6216   19.7092 C   0  0  0  0  0  0  0  0  0  0  0  0
   11.4775   14.7784   19.0871 F   0  0  0  0  0  0  0  0  0  0  0  0
   10.7722   16.8442   19.1783 F   0  0  0  0  0  0  0  0  0  0  0  0
    9.3711   15.2243   19.4100 F   0  0  0  0  0  0  0  0  0  0  0  0
  1  2  1  0
  2  3  1  0
  3  4  2  0
  4  5  1  0
  5  6  2  0
  6  7  1  0
  6  8  1  0
  8  9  2  0
  9 10  1  0
 10 11  1  0
 11 12  2  0
 11 13  1  0
 13 14  1  0
 14 15  1  6
 14 16  1  0
 16 17  1  0
 16 18  1  0
 16 19  1  0
  9  3  1  0
M  END
>  <tags>  (138) 
{'openbind_a71ev2a_c1_knitwork_pure', 'fragmenstein_placed'}

>  <distance_score>  (138) 
0.653432

>  <ref_mols>  (138) 
A4274b,A1445a

>  <smiles>  (138) 
COc1ccc(Br)nc1NC(=O)C[C@@H](C)C(F)(F)F

>  <HIPPO Pose ID>  (138) 
172482

>  <inchikey>  (138) 
VBOWZCAKGFDBNA-UHFFFAOYSA-N

>  <ref_pdb>  (138) 
A5079b

>  <alias>  (138) 
C51400-P344

>  <energy_score>  (138) 
-8.412332

>  <HIPPO Compound ID>  (138) 
67126

$$$$
C51401-P344
     RDKit          3D

 21 21  0  0  0  0  0  0  0  0999 V2000
    9.3183    8.7674   23.3432 C   0  0  0  0  0  0  0  0  0  0  0  0
    9.4145   10.1746   23.4724 O   0  0  0  0  0  0  0  0  0  0  0  0
    8.5979   10.8109   24.3661 C   0  0  0  0  0  0  0  0  0  0  0  0
    7.6235   10.2327   25.1695 C   0  0  0  0  0  0  0  0  0  0  0  0
    6.8313   11.0708   25.9638 C   0  0  0  0  0  0  0  0  0  0  0  0
    5.6933   10.5512   26.6978 N   0  0  0  0  0  0  0  0  0  0  0  0
    5.3520   11.1438   27.7302 O   0  0  0  0  0  0  0  0  0  0  0  0
    5.1417    9.5409   26.2531 O   0  0  0  0  0  0  0  0  0  0  0  0
    7.0844   12.4297   25.9987 C   0  0  0  0  0  0  0  0  0  0  0  0
    8.0606   13.0026   25.2651 N   0  0  0  0  0  0  0  0  0  0  0  0
    8.7498   12.2017   24.4291 C   0  0  0  0  0  0  0  0  0  0  0  0
    9.5401   12.7726   23.4583 N   0  0  0  0  0  0  0  0  0  0  0  0
    9.8637   14.2586   23.1716 C   0  0  0  0  0  0  0  0  0  0  0  0
    9.5732   15.2218   23.7596 O   0  0  0  0  0  0  0  0  0  0  0  0
   10.5911   14.2223   21.8422 C   0  0  0  0  0  0  0  0  0  0  0  0
   10.8381   15.6115   21.2740 C   0  0  1  0  0  0  0  0  0  0  0  0
   12.2204   16.0842   21.6942 C   0  0  0  0  0  0  0  0  0  0  0  0
   10.6249   15.5817   19.7704 C   0  0  0  0  0  0  0  0  0  0  0  0
   11.4578   14.7254   19.1441 F   0  0  0  0  0  0  0  0  0  0  0  0
   10.7686   16.7958   19.2169 F   0  0  0  0  0  0  0  0  0  0  0  0
    9.3596   15.1870   19.5042 F   0  0  0  0  0  0  0  0  0  0  0  0
  1  2  1  0
  2  3  1  0
  3  4  2  0
  4  5  1  0
  5  6  1  0
  6  7  2  0
  6  8  1  0
  5  9  2  0
  9 10  1  0
 10 11  2  0
 11 12  1  0
 12 13  1  0
 13 14  2  0
 13 15  1  0
 15 16  1  0
 16 17  1  6
 16 18  1  0
 18 19  1  0
 18 20  1  0
 18 21  1  0
 11  3  1  0
M  CHG  2   6   1   8  -1
M  END
>  <tags>  (139) 
{'openbind_a71ev2a_c1_knitwork_pure', 'fragmenstein_placed'}

>  <distance_score>  (139) 
0.611015

>  <ref_mols>  (139) 
A4274b,A1445a

>  <smiles>  (139) 
COc1cc([N+](=O)[O-])cnc1NC(=O)C[C@@H](C)C(F)(F)F

>  <HIPPO Pose ID>  (139) 
172483

>  <inchikey>  (139) 
XCWVUVAVUJWFCW-UHFFFAOYSA-N

>  <ref_pdb>  (139) 
A5079b

>  <alias>  (139) 
C51401-P344

>  <energy_score>  (139) 
-14.009552

>  <HIPPO Compound ID>  (139) 
28111

$$$$
C52381-P344
     RDKit          3D

 21 23  0  0  0  0  0  0  0  0999 V2000
    8.1479   15.5714   21.8675 O   0  0  0  0  0  0  0  0  0  0  0  0
    7.0550   14.8323   22.4582 S   0  0  0  0  0  0  0  0  0  0  0  0
    6.8326   13.4476   22.0937 O   0  0  0  0  0  0  0  0  0  0  0  0
    7.1908   15.0314   24.2397 C   0  0  0  0  0  0  0  0  0  0  0  0
    8.2561   14.1262   24.8338 C   0  0  0  0  0  0  0  0  0  0  0  0
    7.6549   12.7445   25.0778 C   0  0  0  0  0  0  0  0  0  0  0  0
    8.6182   11.5896   24.9153 C   0  0  0  0  0  0  0  0  0  0  0  0
    7.9117   10.2417   25.0371 C   0  0  0  0  0  0  0  0  0  0  0  0
    8.6343    9.2926   24.0959 C   0  0  0  0  0  0  0  0  0  0  0  0
    9.7385   10.0794   23.4492 C   0  0  0  0  0  0  0  0  0  0  0  0
    9.3467   11.5346   23.5848 C   0  0  0  0  0  0  0  0  0  0  0  0
    5.6579   15.7054   22.1231 N   0  0  0  0  0  0  0  0  0  0  0  0
    4.3264   15.1466   22.4547 C   0  0  0  0  0  0  0  0  0  0  0  0
    3.7855   15.3987   23.8813 C   0  0  0  0  0  0  0  0  0  0  0  0
    2.8353   14.5781   24.5117 C   0  0  0  0  0  0  0  0  0  0  0  0
    2.3517   14.8596   25.7908 C   0  0  0  0  0  0  0  0  0  0  0  0
    2.8320   15.9785   26.4389 C   0  0  0  0  0  0  0  0  0  0  0  0
    3.7428   16.8061   25.8976 N   0  0  0  0  0  0  0  0  0  0  0  0
    4.1864   16.4954   24.6531 C   0  0  0  0  0  0  0  0  0  0  0  0
    3.8631   13.9365   21.6506 C   0  0  0  0  0  0  0  0  0  0  0  0
    3.2606   15.2652   21.3619 C   0  0  0  0  0  0  0  0  0  0  0  0
  1  2  2  0
  2  3  2  0
  2  4  1  0
  4  5  1  0
  5  6  1  0
  6  7  1  0
  7  8  1  0
  8  9  1  0
  9 10  1  0
 10 11  1  0
  2 12  1  0
 12 13  1  0
 13 14  1  0
 14 15  2  0
 15 16  1  0
 16 17  2  0
 17 18  1  0
 18 19  2  0
 13 20  1  0
 20 21  1  0
 11  7  1  0
 21 13  1  0
 19 14  1  0
M  END
>  <tags>  (140) 
{'openbind_a71ev2a_c1_knitwork_pure', 'fragmenstein_placed'}

>  <distance_score>  (140) 
0.924371

>  <ref_mols>  (140) 
A4274b,A0719a

>  <smiles>  (140) 
O=S(=O)(CCCC1CCCC1)NC1(c2cccnc2)CC1

>  <HIPPO Pose ID>  (140) 
178223

>  <inchikey>  (140) 
XFJSHQDMGLUATN-UHFFFAOYSA-N

>  <ref_pdb>  (140) 
A5079b

>  <alias>  (140) 
C52381-P344

>  <energy_score>  (140) 
-42.557953

>  <HIPPO Compound ID>  (140) 
97354

$$$$
C48046-P344
     RDKit          3D

 20 21  0  0  0  0  0  0  0  0999 V2000
    5.0442   15.0504   21.6733 N   0  0  0  0  0  0  0  0  0  0  0  0
    6.3968   14.7307   22.6159 S   0  0  0  0  0  0  0  0  0  0  0  0
    6.7865   13.3860   22.2487 O   0  0  0  0  0  0  0  0  0  0  0  0
    7.2335   15.8879   22.4323 O   0  0  0  0  0  0  0  0  0  0  0  0
    5.6512   14.7971   24.2543 C   0  0  0  0  0  0  0  0  0  0  0  0
    6.5643   15.1729   25.4193 C   0  0  0  0  0  0  0  0  0  0  0  0
    6.9287   14.0324   26.3962 C   0  0  0  0  0  0  0  0  0  0  0  0
    7.8291   12.9598   25.9507 N   0  0  0  0  0  0  0  0  0  0  0  0
    7.1365   11.8020   25.4119 C   0  0  0  0  0  0  0  0  0  0  0  0
    8.1235   10.7028   25.0612 C   0  0  0  0  0  0  0  0  0  0  0  0
    9.1071   11.1486   23.9895 C   0  0  0  0  0  0  0  0  0  0  0  0
    9.7217   12.5344   24.2448 C   0  0  1  0  0  0  0  0  0  0  0  0
   10.1533   13.1795   22.8944 C   0  0  0  0  0  0  0  0  0  0  0  0
   10.1031   14.6463   22.9031 N   0  0  0  0  0  0  0  0  0  0  0  0
   11.1462   15.2908   23.6861 C   0  0  0  0  0  0  0  0  0  0  0  0
   12.4654   15.2658   22.9552 C   0  0  0  0  0  0  0  0  0  0  0  0
   12.3494   15.9679   21.6161 C   0  0  0  0  0  0  0  0  0  0  0  0
   11.2922   15.2748   20.7736 C   0  0  0  0  0  0  0  0  0  0  0  0
    9.9828   15.2217   21.5488 C   0  0  0  0  0  0  0  0  0  0  0  0
    8.7797   13.4849   24.9803 C   0  0  0  0  0  0  0  0  0  0  0  0
  1  2  1  0
  2  3  2  0
  2  4  2  0
  2  5  1  0
  5  6  1  0
  6  7  1  0
  7  8  1  0
  8  9  1  0
  9 10  1  0
 10 11  1  0
 11 12  1  0
 12 13  1  6
 13 14  1  0
 14 15  1  0
 15 16  1  0
 16 17  1  0
 17 18  1  0
 18 19  1  0
 12 20  1  0
 20  8  1  0
 19 14  1  0
M  END
>  <tags>  (141) 
{'openbind_a71ev2a_c1_knitwork_pure', 'fragmenstein_placed'}

>  <distance_score>  (141) 
0.856072

>  <ref_mols>  (141) 
A4274b,A0719a

>  <smiles>  (141) 
NS(=O)(=O)CCCN1CCC[C@@H](CN2CCCCC2)C1

>  <HIPPO Pose ID>  (141) 
178310

>  <inchikey>  (141) 
XMBXZMQOVGUTTG-UHFFFAOYSA-N

>  <ref_pdb>  (141) 
A5079b

>  <alias>  (141) 
C48046-P344

>  <energy_score>  (141) 
-55.703309

>  <HIPPO Compound ID>  (141) 
49991

$$$$
C52382-P229
     RDKit          3D

 21 23  0  0  0  0  0  0  0  0999 V2000
    9.6478   13.5367   21.5388 O   0  0  0  0  0  0  0  0  0  0  0  0
    9.9261   13.0566   22.8668 S   0  0  0  0  0  0  0  0  0  0  0  0
   10.0055   11.6446   23.1334 O   0  0  0  0  0  0  0  0  0  0  0  0
   11.4367   13.7985   23.4658 C   0  0  0  0  0  0  0  0  0  0  0  0
   11.6113   15.2317   23.0262 C   0  0  0  0  0  0  0  0  0  0  0  0
   11.9824   15.2959   21.5460 C   0  0  0  0  0  0  0  0  0  0  0  0
   11.1891   16.3199   20.8294 C   0  0  0  0  0  0  0  0  0  0  0  0
    9.7514   16.2702   20.3941 C   0  0  0  0  0  0  0  0  0  0  0  0
   10.8310   16.0450   19.3845 C   0  0  0  0  0  0  0  0  0  0  0  0
    8.6447   13.6792   23.6710 N   0  0  0  0  0  0  0  0  0  0  0  0
    8.2542   13.6923   25.0769 C   0  0  0  0  0  0  0  0  0  0  0  0
    7.5862   12.3998   25.5811 C   0  0  0  0  0  0  0  0  0  0  0  0
    6.3745   12.4004   26.2932 C   0  0  0  0  0  0  0  0  0  0  0  0
    5.7723   11.2211   26.7341 C   0  0  0  0  0  0  0  0  0  0  0  0
    6.3861   10.0266   26.4462 C   0  0  0  0  0  0  0  0  0  0  0  0
    7.5561    9.9521   25.7966 N   0  0  0  0  0  0  0  0  0  0  0  0
    8.1208   11.1259   25.3913 C   0  0  0  0  0  0  0  0  0  0  0  0
    7.3106   14.9429   25.1868 C   0  0  0  0  0  0  0  0  0  0  0  0
    7.4695   15.5170   26.5958 C   0  0  0  0  0  0  0  0  0  0  0  0
    8.7127   14.8579   27.1696 C   0  0  0  0  0  0  0  0  0  0  0  0
    9.3905   14.2144   25.9655 C   0  0  0  0  0  0  0  0  0  0  0  0
  1  2  2  0
  2  3  2  0
  2  4  1  0
  4  5  1  0
  5  6  1  0
  6  7  1  0
  7  8  1  0
  8  9  1  0
  2 10  1  0
 10 11  1  0
 11 12  1  0
 12 13  2  0
 13 14  1  0
 14 15  2  0
 15 16  1  0
 16 17  2  0
 11 18  1  0
 18 19  1  0
 19 20  1  0
 20 21  1  0
  9  7  1  0
 21 11  1  0
 17 12  1  0
M  END
>  <tags>  (142) 
{'openbind_a71ev2a_c1_knitwork_pure', 'fragmenstein_placed'}

>  <distance_score>  (142) 
0.99419

>  <ref_mols>  (142) 
A3869a,A0719a

>  <smiles>  (142) 
O=S(=O)(CCCC1CC1)NC1(c2cccnc2)CCCC1

>  <HIPPO Pose ID>  (142) 
179967

>  <inchikey>  (142) 
QNLCPYNLKHRGGT-UHFFFAOYSA-N

>  <ref_pdb>  (142) 
A1140a

>  <alias>  (142) 
C52382-P229

>  <energy_score>  (142) 
-32.529046

>  <HIPPO Compound ID>  (142) 
48546

$$$$
C45790-P228
     RDKit          3D

 18 20  0  0  0  0  0  0  0  0999 V2000
   10.2629   12.5585   24.7536 O   0  0  0  0  0  0  0  0  0  0  0  0
    9.4865   13.7120   24.3358 S   0  0  0  0  0  0  0  0  0  0  0  0
    9.2222   14.7773   25.2806 O   0  0  0  0  0  0  0  0  0  0  0  0
   10.3134   14.3348   22.8745 C   0  0  2  0  0  0  0  0  0  0  0  0
   11.4009   15.3403   23.2514 C   0  0  0  0  0  0  0  0  0  0  0  0
   12.1274   15.7747   21.9872 C   0  0  0  0  0  0  0  0  0  0  0  0
   11.1700   16.2930   20.9261 C   0  0  0  0  0  0  0  0  0  0  0  0
   10.1400   15.3090   20.6030 N   0  0  0  0  0  0  0  0  0  0  0  0
    9.3958   14.9233   21.8091 C   0  0  0  0  0  0  0  0  0  0  0  0
    7.9794   13.1970   23.7045 N   0  0  0  0  0  0  0  0  0  0  0  0
    6.8999   14.2626   23.6969 C   0  0  0  0  0  0  0  0  0  0  0  0
    6.0273   13.9953   24.9358 C   0  0  0  0  0  0  0  0  0  0  0  0
    6.2900   12.5453   25.1669 C   0  0  0  0  0  0  0  0  0  0  0  0
    5.5992   11.6639   25.9729 C   0  0  0  0  0  0  0  0  0  0  0  0
    6.0009   10.3288   25.9650 C   0  0  0  0  0  0  0  0  0  0  0  0
    7.1013    9.9117   25.1945 C   0  0  0  0  0  0  0  0  0  0  0  0
    7.8371   10.8187   24.4476 C   0  0  0  0  0  0  0  0  0  0  0  0
    7.4021   12.1234   24.4426 C   0  0  0  0  0  0  0  0  0  0  0  0
  1  2  2  0
  2  3  2  0
  4  2  1  1
  4  5  1  0
  5  6  1  0
  6  7  1  0
  7  8  1  0
  8  9  1  0
  2 10  1  0
 10 11  1  0
 11 12  1  0
 12 13  1  0
 13 14  2  0
 14 15  1  0
 15 16  2  0
 16 17  1  0
 17 18  2  0
  9  4  1  0
 18 10  1  0
 18 13  1  0
M  END
>  <tags>  (143) 
{'openbind_a71ev2a_c1_knitwork_pure', 'fragmenstein_placed'}

>  <distance_score>  (143) 
0.834356

>  <ref_mols>  (143) 
A1778a,A3868a

>  <smiles>  (143) 
O=S(=O)([C@@H]1CCCNC1)N1CCc2ccccc21

>  <HIPPO Pose ID>  (143) 
180731

>  <inchikey>  (143) 
DPROWOJPCAHSLR-UHFFFAOYSA-N

>  <ref_pdb>  (143) 
A1140a

>  <alias>  (143) 
C45790-P228

>  <energy_score>  (143) 
-43.251701

>  <HIPPO Compound ID>  (143) 
46492

$$$$
C45958-P228
     RDKit          3D

 22 24  0  0  0  0  0  0  0  0999 V2000
   11.5081   15.3484   18.7972 C   0  0  0  0  0  0  0  0  0  0  0  0
   10.3424   16.0292   19.9559 S   0  0  0  0  0  0  0  0  0  0  0  0
    9.0702   15.4229   19.7093 O   0  0  0  0  0  0  0  0  0  0  0  0
   10.4339   17.4605   20.0460 O   0  0  0  0  0  0  0  0  0  0  0  0
   10.8553   15.4083   21.4269 N   0  0  0  0  0  0  0  0  0  0  0  0
   11.9889   16.1378   22.0235 C   0  0  0  0  0  0  0  0  0  0  0  0
   12.5068   15.2887   23.1593 C   0  0  0  0  0  0  0  0  0  0  0  0
   11.4594   15.0486   24.2110 C   0  0  0  0  0  0  0  0  0  0  0  0
   10.3327   14.2923   23.5213 C   0  0  1  0  0  0  0  0  0  0  0  0
    9.2253   13.6913   24.7388 S   0  0  0  0  0  0  0  0  0  0  0  0
    9.9035   12.5303   25.2870 O   0  0  0  0  0  0  0  0  0  0  0  0
    8.8139   14.7671   25.6144 O   0  0  0  0  0  0  0  0  0  0  0  0
    7.8768   13.1902   23.8016 N   0  0  0  0  0  0  0  0  0  0  0  0
    6.7920   14.2456   23.6845 C   0  0  0  0  0  0  0  0  0  0  0  0
    5.8369   13.9931   24.8717 C   0  0  0  0  0  0  0  0  0  0  0  0
    6.1025   12.5502   25.1582 C   0  0  0  0  0  0  0  0  0  0  0  0
    5.4316   11.6916   26.0032 C   0  0  0  0  0  0  0  0  0  0  0  0
    5.8495   10.3595   26.0430 C   0  0  0  0  0  0  0  0  0  0  0  0
    6.9363    9.9207   25.2661 C   0  0  0  0  0  0  0  0  0  0  0  0
    7.6609   10.8064   24.4890 C   0  0  0  0  0  0  0  0  0  0  0  0
    7.2181   12.1078   24.4535 C   0  0  0  0  0  0  0  0  0  0  0  0
    9.7538   15.1360   22.4090 C   0  0  0  0  0  0  0  0  0  0  0  0
  1  2  1  0
  2  3  2  0
  2  4  2  0
  2  5  1  0
  5  6  1  0
  6  7  1  0
  7  8  1  0
  8  9  1  0
  9 10  1  1
 10 11  2  0
 10 12  2  0
 10 13  1  0
 13 14  1  0
 14 15  1  0
 15 16  1  0
 16 17  2  0
 17 18  1  0
 18 19  2  0
 19 20  1  0
 20 21  2  0
  9 22  1  0
 22  5  1  0
 21 13  1  0
 21 16  1  0
M  END
>  <tags>  (144) 
{'openbind_a71ev2a_c1_knitwork_pure', 'fragmenstein_placed'}

>  <distance_score>  (144) 
0.948413

>  <ref_mols>  (144) 
A1778a,A3868a

>  <smiles>  (144) 
CS(=O)(=O)N1CCC[C@@H](S(=O)(=O)N2CCc3ccccc32)C1

>  <HIPPO Pose ID>  (144) 
180736

>  <inchikey>  (144) 
HZQGVMFRCXKOBL-UHFFFAOYSA-N

>  <ref_pdb>  (144) 
A1140a

>  <alias>  (144) 
C45958-P228

>  <energy_score>  (144) 
-39.377429

>  <HIPPO Compound ID>  (144) 
46960

$$$$
C45959-P228
     RDKit          3D

 22 24  0  0  0  0  0  0  0  0999 V2000
   12.0663   14.4878   19.6156 C   0  0  0  0  0  0  0  0  0  0  0  0
   11.1327   15.4100   19.4173 C   0  0  0  0  0  0  0  0  0  0  0  0
   11.1563   16.3050   17.9935 Cl  0  0  0  0  0  0  0  0  0  0  0  0
   10.1400   15.8772   20.4130 C   0  0  0  0  0  0  0  0  0  0  0  0
   10.4682   15.4671   21.7798 N   0  0  0  0  0  0  0  0  0  0  0  0
   11.7136   16.0853   22.2449 C   0  0  0  0  0  0  0  0  0  0  0  0
   12.0636   15.4012   23.5496 C   0  0  0  0  0  0  0  0  0  0  0  0
   11.0339   15.7849   24.5956 C   0  0  0  0  0  0  0  0  0  0  0  0
    9.6139   15.4541   24.1210 C   0  0  2  0  0  0  0  0  0  0  0  0
    9.2097   13.7814   24.6021 S   0  0  0  0  0  0  0  0  0  0  0  0
   10.2406   12.8615   24.1682 O   0  0  0  0  0  0  0  0  0  0  0  0
    8.9011   13.8778   26.0200 O   0  0  0  0  0  0  0  0  0  0  0  0
    7.7493   13.3791   23.8094 N   0  0  0  0  0  0  0  0  0  0  0  0
    6.6138   14.3669   23.9506 C   0  0  0  0  0  0  0  0  0  0  0  0
    5.7658   13.9146   25.1452 C   0  0  0  0  0  0  0  0  0  0  0  0
    6.1189   12.4707   25.2155 C   0  0  0  0  0  0  0  0  0  0  0  0
    5.5370   11.4944   25.9939 C   0  0  0  0  0  0  0  0  0  0  0  0
    6.0407   10.2005   25.8915 C   0  0  0  0  0  0  0  0  0  0  0  0
    7.1490    9.9152   25.0734 C   0  0  0  0  0  0  0  0  0  0  0  0
    7.7685   10.9200   24.3410 C   0  0  0  0  0  0  0  0  0  0  0  0
    7.2215   12.1837   24.4115 C   0  0  0  0  0  0  0  0  0  0  0  0
    9.3538   15.7852   22.6599 C   0  0  0  0  0  0  0  0  0  0  0  0
  1  2  2  0
  2  3  1  0
  2  4  1  0
  4  5  1  0
  5  6  1  0
  6  7  1  0
  7  8  1  0
  8  9  1  0
  9 10  1  6
 10 11  2  0
 10 12  2  0
 10 13  1  0
 13 14  1  0
 14 15  1  0
 15 16  1  0
 16 17  2  0
 17 18  1  0
 18 19  2  0
 19 20  1  0
 20 21  2  0
  9 22  1  0
 22  5  1  0
 21 13  1  0
 21 16  1  0
M  END
>  <tags>  (145) 
{'openbind_a71ev2a_c1_knitwork_pure', 'fragmenstein_placed'}

>  <distance_score>  (145) 
0.987094

>  <ref_mols>  (145) 
A1778a,A3868a

>  <smiles>  (145) 
C=C(Cl)CN1CCC[C@H](S(=O)(=O)N2CCc3ccccc32)C1

>  <HIPPO Pose ID>  (145) 
180737

>  <inchikey>  (145) 
NBCOLWIEDFDBPP-UHFFFAOYSA-N

>  <ref_pdb>  (145) 
A1140a

>  <alias>  (145) 
C45959-P228

>  <energy_score>  (145) 
-50.237767

>  <HIPPO Compound ID>  (145) 
48055

$$$$
C45966-P228
     RDKit          3D

 20 22  0  0  0  0  0  0  0  0999 V2000
   11.3827   15.1956   18.7395 C   0  0  0  0  0  0  0  0  0  0  0  0
   10.4804   15.7945   19.8062 C   0  0  0  0  0  0  0  0  0  0  0  0
   10.7412   15.2786   21.1655 N   0  0  0  0  0  0  0  0  0  0  0  0
   11.9781   15.8671   21.6841 C   0  0  0  0  0  0  0  0  0  0  0  0
   12.2359   15.3624   23.0917 C   0  0  0  0  0  0  0  0  0  0  0  0
   11.1654   15.8773   24.0270 C   0  0  0  0  0  0  0  0  0  0  0  0
    9.7841   15.4365   23.5595 C   0  0  2  0  0  0  0  0  0  0  0  0
    9.3635   13.8720   24.3432 S   0  0  0  0  0  0  0  0  0  0  0  0
   10.3851   12.8786   24.0802 O   0  0  0  0  0  0  0  0  0  0  0  0
    9.0296   14.1862   25.7244 O   0  0  0  0  0  0  0  0  0  0  0  0
    7.9074   13.3675   23.5930 N   0  0  0  0  0  0  0  0  0  0  0  0
    6.7648   14.3546   23.6496 C   0  0  0  0  0  0  0  0  0  0  0  0
    5.9107   13.9786   24.8696 C   0  0  0  0  0  0  0  0  0  0  0  0
    6.2672   12.5417   25.0403 C   0  0  0  0  0  0  0  0  0  0  0  0
    5.6597   11.6018   25.8474 C   0  0  0  0  0  0  0  0  0  0  0  0
    6.1583   10.3007   25.8173 C   0  0  0  0  0  0  0  0  0  0  0  0
    7.2840    9.9751   25.0393 C   0  0  0  0  0  0  0  0  0  0  0  0
    7.9290   10.9460   24.2805 C   0  0  0  0  0  0  0  0  0  0  0  0
    7.3888   12.2147   24.2797 C   0  0  0  0  0  0  0  0  0  0  0  0
    9.5829   15.5393   22.0392 C   0  0  0  0  0  0  0  0  0  0  0  0
  1  2  1  0
  2  3  1  0
  3  4  1  0
  4  5  1  0
  5  6  1  0
  6  7  1  0
  7  8  1  6
  8  9  2  0
  8 10  2  0
  8 11  1  0
 11 12  1  0
 12 13  1  0
 13 14  1  0
 14 15  2  0
 15 16  1  0
 16 17  2  0
 17 18  1  0
 18 19  2  0
  7 20  1  0
 20  3  1  0
 19 11  1  0
 19 14  1  0
M  END
>  <tags>  (146) 
{'openbind_a71ev2a_c1_knitwork_pure', 'fragmenstein_placed'}

>  <distance_score>  (146) 
0.778461

>  <ref_mols>  (146) 
A1778a,A3868a

>  <smiles>  (146) 
CCN1CCC[C@H](S(=O)(=O)N2CCc3ccccc32)C1

>  <HIPPO Pose ID>  (146) 
180740

>  <inchikey>  (146) 
ATBDAIGFBNCITP-UHFFFAOYSA-N

>  <ref_pdb>  (146) 
A1140a

>  <alias>  (146) 
C45966-P228

>  <energy_score>  (146) 
-39.135946

>  <HIPPO Compound ID>  (146) 
48630

$$$$
C45979-P228
     RDKit          3D

 23 25  0  0  0  0  0  0  0  0999 V2000
   11.3720   14.6438   18.5138 C   0  0  0  0  0  0  0  0  0  0  0  0
   10.6385   15.8469   18.9741 C   0  0  0  0  0  0  0  0  0  0  0  0
   11.5467   16.8171   19.1595 F   0  0  0  0  0  0  0  0  0  0  0  0
    9.8182   16.2939   17.9887 F   0  0  0  0  0  0  0  0  0  0  0  0
    9.8202   15.7687   20.2430 C   0  0  0  0  0  0  0  0  0  0  0  0
   10.3781   15.2908   21.5261 N   0  0  0  0  0  0  0  0  0  0  0  0
   11.6984   15.8552   21.8089 C   0  0  0  0  0  0  0  0  0  0  0  0
   12.1706   15.3284   23.1572 C   0  0  0  0  0  0  0  0  0  0  0  0
   11.2551   15.7794   24.2814 C   0  0  0  0  0  0  0  0  0  0  0  0
    9.8000   15.4291   24.0024 C   0  0  2  0  0  0  0  0  0  0  0  0
    9.3690   13.8312   24.6750 S   0  0  0  0  0  0  0  0  0  0  0  0
   10.3698   12.8482   24.3143 O   0  0  0  0  0  0  0  0  0  0  0  0
    9.0678   14.0619   26.0775 O   0  0  0  0  0  0  0  0  0  0  0  0
    7.8870   13.4169   23.9208 N   0  0  0  0  0  0  0  0  0  0  0  0
    6.7608   14.4128   24.0900 C   0  0  0  0  0  0  0  0  0  0  0  0
    5.8940   13.9206   25.2539 C   0  0  0  0  0  0  0  0  0  0  0  0
    6.2346   12.4725   25.2707 C   0  0  0  0  0  0  0  0  0  0  0  0
    5.6145   11.4680   25.9802 C   0  0  0  0  0  0  0  0  0  0  0  0
    6.1058   10.1743   25.8307 C   0  0  0  0  0  0  0  0  0  0  0  0
    7.2355    9.9128   25.0341 C   0  0  0  0  0  0  0  0  0  0  0  0
    7.8889   10.9435   24.3691 C   0  0  0  0  0  0  0  0  0  0  0  0
    7.3591   12.2101   24.4894 C   0  0  0  0  0  0  0  0  0  0  0  0
    9.4027   15.6699   22.5578 C   0  0  0  0  0  0  0  0  0  0  0  0
  1  2  1  0
  2  3  1  0
  2  4  1  0
  2  5  1  0
  5  6  1  0
  6  7  1  0
  7  8  1  0
  8  9  1  0
  9 10  1  0
 10 11  1  6
 11 12  2  0
 11 13  2  0
 11 14  1  0
 14 15  1  0
 15 16  1  0
 16 17  1  0
 17 18  2  0
 18 19  1  0
 19 20  2  0
 20 21  1  0
 21 22  2  0
 10 23  1  0
 23  6  1  0
 22 14  1  0
 22 17  1  0
M  END
>  <tags>  (147) 
{'openbind_a71ev2a_c1_knitwork_pure', 'fragmenstein_placed'}

>  <distance_score>  (147) 
0.979673

>  <ref_mols>  (147) 
A1778a,A3868a

>  <smiles>  (147) 
CC(F)(F)CN1CCC[C@H](S(=O)(=O)N2CCc3ccccc32)C1

>  <HIPPO Pose ID>  (147) 
180750

>  <inchikey>  (147) 
RBXTZVLYSUIEGL-UHFFFAOYSA-N

>  <ref_pdb>  (147) 
A1140a

>  <alias>  (147) 
C45979-P228

>  <energy_score>  (147) 
-51.911721

>  <HIPPO Compound ID>  (147) 
41168

$$$$
C52374-P401
     RDKit          3D

 23 25  0  0  0  0  0  0  0  0999 V2000
    7.1537   10.1540   25.5618 C   0  0  0  0  0  0  0  0  0  0  0  0
    6.2452   10.7153   26.4550 C   0  0  0  0  0  0  0  0  0  0  0  0
    6.0742   12.0976   26.4887 C   0  0  0  0  0  0  0  0  0  0  0  0
    6.8032   12.9233   25.6205 C   0  0  0  0  0  0  0  0  0  0  0  0
    6.5841   14.4155   25.6267 C   0  0  0  0  0  0  0  0  0  0  0  0
    7.0720   15.0223   26.8250 O   0  0  0  0  0  0  0  0  0  0  0  0
    8.4927   15.1447   26.8519 C   0  0  0  0  0  0  0  0  0  0  0  0
    8.9155   15.7903   28.1700 C   0  0  0  0  0  0  0  0  0  0  0  0
    8.7849   17.3238   28.1455 C   0  0  0  0  0  0  0  0  0  0  0  0
    7.9900   17.8486   29.2676 N   0  0  0  0  0  0  0  0  0  0  0  0
    6.5431   17.6660   29.0629 C   0  0  0  0  0  0  0  0  0  0  0  0
    5.9543   18.5583   27.9693 C   0  0  0  0  0  0  0  0  0  0  0  0
    6.2826   20.0300   28.1954 C   0  0  0  0  0  0  0  0  0  0  0  0
    7.7859   20.2693   28.4495 C   0  0  1  0  0  0  0  0  0  0  0  0
    7.9676   21.7056   28.7644 N   0  0  0  0  0  0  0  0  0  0  0  0
    7.8004   22.5515   27.5530 C   0  0  0  0  0  0  0  0  0  0  0  0
    8.8139   23.7087   27.4151 C   0  0  0  0  0  0  0  0  0  0  0  0
   10.2153   23.2922   27.5497 N   0  0  0  0  0  0  0  0  0  0  0  0
   10.3944   22.2723   28.5901 C   0  0  0  0  0  0  0  0  0  0  0  0
    9.1796   22.0789   29.5017 C   0  0  0  0  0  0  0  0  0  0  0  0
    8.2720   19.2713   29.5409 C   0  0  0  0  0  0  0  0  0  0  0  0
    7.7310   12.3439   24.7419 C   0  0  0  0  0  0  0  0  0  0  0  0
    7.9085   10.9624   24.7165 C   0  0  0  0  0  0  0  0  0  0  0  0
  1  2  2  0
  2  3  1  0
  3  4  2  0
  4  5  1  0
  5  6  1  0
  6  7  1  0
  7  8  1  0
  8  9  1  0
  9 10  1  0
 10 11  1  0
 11 12  1  0
 12 13  1  0
 13 14  1  0
 14 15  1  1
 15 16  1  0
 16 17  1  0
 17 18  1  0
 18 19  1  0
 19 20  1  0
 14 21  1  0
  4 22  1  0
 22 23  2  0
 23  1  1  0
 21 10  1  0
 20 15  1  0
M  END
>  <tags>  (148) 
{'openbind_a71ev2a_c1_knitwork_pure', 'fragmenstein_placed'}

>  <distance_score>  (148) 
0.755446

>  <ref_mols>  (148) 
A4554a,A0469a

>  <smiles>  (148) 
c1ccc(COCCCN2CCC[C@@H](N3CCNCC3)C2)cc1

>  <HIPPO Pose ID>  (148) 
181505

>  <inchikey>  (148) 
SXJFQBSZDASCMN-UHFFFAOYSA-N

>  <ref_pdb>  (148) 
A1140a

>  <alias>  (148) 
C52374-P401

>  <energy_score>  (148) 
-31.59116

>  <HIPPO Compound ID>  (148) 
48056

$$$$
C119628-P106
     RDKit          3D

 23 25  0  0  0  0  0  0  0  0999 V2000
    7.6770   14.2316   22.0989 C   0  0  0  0  0  0  0  0  0  0  0  0
    8.7857   13.5347   22.8622 C   0  0  0  0  0  0  0  0  0  0  0  0
   10.2866   13.8205   22.6157 C   0  0  2  0  0  0  0  0  0  0  0  0
   10.6443   14.3171   21.2151 C   0  0  0  0  0  0  0  0  0  0  0  0
    9.9233   15.5307   20.9800 N   0  0  0  0  0  0  0  0  0  0  0  0
   10.1427   16.1470   19.7100 C   0  0  0  0  0  0  0  0  0  0  0  0
    9.4887   17.4945   19.9754 C   0  0  0  0  0  0  0  0  0  0  0  0
    9.3459   17.6728   21.4550 C   0  0  0  0  0  0  0  0  0  0  0  0
   10.1566   16.5436   21.9755 C   0  0  0  0  0  0  0  0  0  0  0  0
   11.1162   12.6524   22.9461 N   0  0  0  0  0  0  0  0  0  0  0  0
   11.1585   12.1804   24.5466 S   0  0  0  0  0  0  0  0  0  0  0  0
   11.2208   13.3322   25.4125 O   0  0  0  0  0  0  0  0  0  0  0  0
   12.1573   11.1365   24.6217 O   0  0  0  0  0  0  0  0  0  0  0  0
    9.6740   11.3685   24.8243 C   0  0  0  0  0  0  0  0  0  0  0  0
    9.4094   10.1395   24.2627 C   0  0  0  0  0  0  0  0  0  0  0  0
    8.1377    9.8230   24.5978 N   0  0  0  0  0  0  0  0  0  0  0  0
    7.5488   10.7970   25.3473 C   0  0  0  0  0  0  0  0  0  0  0  0
    6.2754   10.8404   25.9319 C   0  0  0  0  0  0  0  0  0  0  0  0
    5.9077   11.9525   26.6695 C   0  0  0  0  0  0  0  0  0  0  0  0
    6.8053   12.9889   26.8127 C   0  0  0  0  0  0  0  0  0  0  0  0
    8.0689   12.9398   26.1927 C   0  0  0  0  0  0  0  0  0  0  0  0
    8.9366   13.9398   26.3847 F   0  0  0  0  0  0  0  0  0  0  0  0
    8.4870   11.8127   25.4758 C   0  0  0  0  0  0  0  0  0  0  0  0
  1  2  1  0
  3  2  1  6
  3  4  1  0
  4  5  1  0
  5  6  1  0
  6  7  1  0
  7  8  1  0
  8  9  1  0
  3 10  1  0
 10 11  1  0
 11 12  2  0
 11 13  2  0
 11 14  1  0
 14 15  2  0
 15 16  1  0
 16 17  1  0
 17 18  2  0
 18 19  1  0
 19 20  2  0
 20 21  1  0
 21 22  1  0
 21 23  2  0
  9  5  1  0
 23 14  1  0
 23 17  1  0
M  END
>  <tags>  (149) 
{'openbind_a71ev2a_c1_knitwork_pure', 'fragmenstein_placed'}

>  <distance_score>  (149) 
0.922237

>  <ref_mols>  (149) 
A1140a,A3568a

>  <smiles>  (149) 
CC[C@H](CN1CCCC1)NS(=O)(=O)c1c[nH]c2cccc(F)c12

>  <HIPPO Pose ID>  (149) 
182367

>  <inchikey>  (149) 
VYESCFQDWYETRW-UHFFFAOYSA-N

>  <ref_pdb>  (149) 
A1140a

>  <alias>  (149) 
C119628-P106

>  <energy_score>  (149) 
-26.481546

>  <HIPPO Compound ID>  (149) 
119620

$$$$
C55786-P322
     RDKit          3D

 22 24  0  0  0  0  0  0  0  0999 V2000
   -2.1382   13.8264   17.8755 O   0  0  0  0  0  0  0  0  0  0  0  0
   -1.2217   14.4995   17.6035 C   0  0  0  0  0  0  0  0  0  0  0  0
   -1.2699   15.4810   16.4412 C   0  0  0  0  0  0  0  0  0  0  0  0
   -1.2690   14.8670   15.1226 N   0  0  0  0  0  0  0  0  0  0  0  0
   -1.6108   13.5978   14.7584 C   0  0  0  0  0  0  0  0  0  0  0  0
   -1.6849   13.6042   13.3845 C   0  0  0  0  0  0  0  0  0  0  0  0
   -1.3350   14.9186   12.9914 C   0  0  0  0  0  0  0  0  0  0  0  0
   -1.2820   15.5349   11.6167 C   0  0  2  0  0  0  0  0  0  0  0  0
   -2.1529   16.8066   11.5266 C   0  0  0  0  0  0  0  0  0  0  0  0
   -2.5860   17.1270   10.0936 C   0  0  0  0  0  0  0  0  0  0  0  0
   -1.5853   16.5985    9.0719 C   0  0  0  0  0  0  0  0  0  0  0  0
   -1.4180   15.1424    9.1349 N   0  0  0  0  0  0  0  0  0  0  0  0
   -1.6591   14.5804   10.4721 C   0  0  0  0  0  0  0  0  0  0  0  0
   -1.0002   15.6631   14.0568 N   0  0  0  0  0  0  0  0  0  0  0  0
    0.1704   14.6273   18.2832 N   0  0  0  0  0  0  0  0  0  0  0  0
    0.6823   14.0242   19.4891 C   0  0  0  0  0  0  0  0  0  0  0  0
    1.6071   12.8473   19.1782 C   0  0  0  0  0  0  0  0  0  0  0  0
    2.9080   13.3509   18.5494 C   0  0  0  0  0  0  0  0  0  0  0  0
    3.8789   12.2095   18.3492 C   0  0  0  0  0  0  0  0  0  0  0  0
    4.1422   11.5338   19.5799 O   0  0  0  0  0  0  0  0  0  0  0  0
    2.9586   10.9490   20.1173 C   0  0  0  0  0  0  0  0  0  0  0  0
    1.9320   12.0293   20.4370 C   0  0  0  0  0  0  0  0  0  0  0  0
  1  2  2  0
  2  3  1  0
  3  4  1  0
  4  5  1  0
  5  6  2  0
  6  7  1  0
  8  7  1  1
  8  9  1  0
  9 10  1  0
 10 11  1  0
 11 12  1  0
 12 13  1  0
  7 14  2  0
  2 15  1  0
 15 16  1  0
 16 17  1  0
 17 18  1  0
 18 19  1  0
 19 20  1  0
 20 21  1  0
 21 22  1  0
 14  4  1  0
 22 17  1  0
 13  8  1  0
M  END
>  <tags>  (150) 
{'openbind_a71ev2a_c1_knitwork_pure', 'fragmenstein_placed'}

>  <distance_score>  (150) 
0.986219

>  <ref_mols>  (150) 
A0473a,A4351a

>  <smiles>  (150) 
O=C(Cn1ccc([C@@H]2CCCNC2)n1)NCC1CCOCC1

>  <HIPPO Pose ID>  (150) 
182914

>  <inchikey>  (150) 
BUFNXCVHZNVGON-UHFFFAOYSA-N

>  <ref_pdb>  (150) 
A1140a

>  <alias>  (150) 
C55786-P322

>  <energy_score>  (150) 
-23.002052

>  <HIPPO Compound ID>  (150) 
119723

$$$$
C63883-P224
     RDKit          3D

 14 15  0  0  0  0  0  0  0  0999 V2000
    8.9739   15.3440   27.8745 Cl  0  0  0  0  0  0  0  0  0  0  0  0
   10.0514   15.2958   26.5258 C   0  0  0  0  0  0  0  0  0  0  0  0
   11.1085   16.1793   26.4819 C   0  0  0  0  0  0  0  0  0  0  0  0
   11.9964   16.2179   25.4680 N   0  0  0  0  0  0  0  0  0  0  0  0
   11.8176   15.3552   24.4485 C   0  0  0  0  0  0  0  0  0  0  0  0
   10.8086   14.4169   24.4212 C   0  0  0  0  0  0  0  0  0  0  0  0
    9.8942   14.3722   25.4769 C   0  0  0  0  0  0  0  0  0  0  0  0
    8.9524   13.3629   25.5943 N   0  0  0  0  0  0  0  0  0  0  0  0
    8.6948   12.3814   24.5645 C   0  0  0  0  0  0  0  0  0  0  0  0
    7.9257   11.2408   25.0984 C   0  0  0  0  0  0  0  0  0  0  0  0
    7.9998    9.8800   24.9438 C   0  0  0  0  0  0  0  0  0  0  0  0
    6.9994    9.2824   25.6672 N   0  0  0  0  0  0  0  0  0  0  0  0
    6.3928   10.2879   26.2575 C   0  0  0  0  0  0  0  0  0  0  0  0
    6.9028   11.5132   25.9695 O   0  0  0  0  0  0  0  0  0  0  0  0
  1  2  1  0
  2  3  2  0
  3  4  1  0
  4  5  2  0
  5  6  1  0
  6  7  2  0
  7  8  1  0
  8  9  1  0
  9 10  1  0
 10 11  2  0
 11 12  1  0
 12 13  2  0
 13 14  1  0
  7  2  1  0
 14 10  1  0
M  END
>  <tags>  (151) 
{'openbind_a71ev2a_c1_knitwork_pure', 'fragmenstein_placed'}

>  <distance_score>  (151) 
0.929694

>  <ref_mols>  (151) 
A3849a,A3623a

>  <smiles>  (151) 
Clc1cnccc1NCc1cnco1

>  <HIPPO Pose ID>  (151) 
185177

>  <inchikey>  (151) 
HVAHNKDDJIROCW-UHFFFAOYSA-N

>  <ref_pdb>  (151) 
A1180a

>  <alias>  (151) 
C63883-P224

>  <energy_score>  (151) 
-14.678094

>  <HIPPO Compound ID>  (151) 
66135

$$$$
C105131-P135
     RDKit          3D

 20 22  0  0  0  0  0  0  0  0999 V2000
   14.9665   18.2985   18.6642 O   0  0  0  0  0  0  0  0  0  0  0  0
   14.2326   17.4233   19.1226 C   0  0  0  0  0  0  0  0  0  0  0  0
   13.5149   16.4311   18.2369 C   0  0  0  0  0  0  0  0  0  0  0  0
   13.1122   15.1286   18.9196 C   0  0  0  0  0  0  0  0  0  0  0  0
   12.5104   15.3784   20.2778 C   0  0  1  0  0  0  0  0  0  0  0  0
   12.0256   14.2179   21.0106 N   0  0  0  0  0  0  0  0  0  0  0  0
   11.1419   14.1312   22.2994 C   0  0  0  0  0  0  0  0  0  0  0  0
   10.7524   14.9583   22.9820 O   0  0  0  0  0  0  0  0  0  0  0  0
   10.9450   12.5881   22.3761 N   0  0  0  0  0  0  0  0  0  0  0  0
   10.1719   11.8233   23.2375 C   0  0  0  0  0  0  0  0  0  0  0  0
   10.0903   10.4610   23.0302 C   0  0  0  0  0  0  0  0  0  0  0  0
    9.2335    9.7172   23.8225 C   0  0  0  0  0  0  0  0  0  0  0  0
    8.4609   10.3612   24.7765 C   0  0  0  0  0  0  0  0  0  0  0  0
    8.5828   11.7319   24.9573 C   0  0  0  0  0  0  0  0  0  0  0  0
    7.7335   12.4970   25.9419 C   0  0  0  0  0  0  0  0  0  0  0  0
    6.8557   11.8650   26.9988 C   0  0  0  0  0  0  0  0  0  0  0  0
    6.2288   12.4756   25.7863 C   0  0  0  0  0  0  0  0  0  0  0  0
    9.4570   12.4417   24.2009 N   0  0  0  0  0  0  0  0  0  0  0  0
   13.3101   16.3228   21.1594 C   0  0  0  0  0  0  0  0  0  0  0  0
   13.9643   17.4026   20.4549 N   0  0  0  0  0  0  0  0  0  0  0  0
  1  2  2  0
  2  3  1  0
  3  4  1  0
  4  5  1  0
  5  6  1  1
  6  7  1  0
  7  8  2  0
  7  9  1  0
  9 10  1  0
 10 11  2  0
 11 12  1  0
 12 13  2  0
 13 14  1  0
 14 15  1  0
 15 16  1  0
 16 17  1  0
 14 18  2  0
  5 19  1  0
 19 20  1  0
 20  2  1  0
 18 10  1  0
 17 15  1  0
M  END
>  <tags>  (152) 
{'openbind_a71ev2a_c1_knitwork_pure', 'fragmenstein_placed'}

>  <distance_score>  (152) 
0.921568

>  <ref_mols>  (152) 
A4029a,A2629a

>  <smiles>  (152) 
O=C1CC[C@@H](NC(=O)Nc2cccc(C3CC3)n2)CN1

>  <HIPPO Pose ID>  (152) 
185672

>  <inchikey>  (152) 
TVIVKSZHVBUWMY-UHFFFAOYSA-N

>  <ref_pdb>  (152) 
A1180a

>  <alias>  (152) 
C105131-P135

>  <energy_score>  (152) 
-11.821528

>  <HIPPO Compound ID>  (152) 
120944

$$$$
C51401-P213
     RDKit          3D

 21 21  0  0  0  0  0  0  0  0999 V2000
    9.1886    9.1063   23.9486 C   0  0  0  0  0  0  0  0  0  0  0  0
    8.0093    9.3806   24.7507 O   0  0  0  0  0  0  0  0  0  0  0  0
    7.7750   10.7260   24.8980 C   0  0  0  0  0  0  0  0  0  0  0  0
    8.3132   11.6397   23.9869 C   0  0  0  0  0  0  0  0  0  0  0  0
    8.2248   12.9946   24.2465 C   0  0  0  0  0  0  0  0  0  0  0  0
    8.7869   13.9296   23.3324 N   0  0  0  0  0  0  0  0  0  0  0  0
    9.6526   14.6808   23.7877 O   0  0  0  0  0  0  0  0  0  0  0  0
    8.3662   13.8874   22.1700 O   0  0  0  0  0  0  0  0  0  0  0  0
    7.6482   13.4440   25.3974 C   0  0  0  0  0  0  0  0  0  0  0  0
    7.0878   12.5922   26.2663 N   0  0  0  0  0  0  0  0  0  0  0  0
    7.0809   11.2621   25.9905 C   0  0  0  0  0  0  0  0  0  0  0  0
    6.1638   10.6164   26.8043 N   0  0  0  0  0  0  0  0  0  0  0  0
    5.6679   10.9617   28.2415 C   0  0  0  0  0  0  0  0  0  0  0  0
    6.0160   11.7967   28.9825 O   0  0  0  0  0  0  0  0  0  0  0  0
    4.4760   10.0653   28.5909 C   0  0  0  0  0  0  0  0  0  0  0  0
    3.5372   10.6702   29.6904 C   0  0  1  0  0  0  0  0  0  0  0  0
    3.3907   12.2036   29.6767 C   0  0  0  0  0  0  0  0  0  0  0  0
    2.1217   10.1124   29.5880 C   0  0  0  0  0  0  0  0  0  0  0  0
    1.3902   10.4350   30.6773 F   0  0  0  0  0  0  0  0  0  0  0  0
    2.1165    8.7682   29.4811 F   0  0  0  0  0  0  0  0  0  0  0  0
    1.4797   10.5977   28.4993 F   0  0  0  0  0  0  0  0  0  0  0  0
  1  2  1  0
  2  3  1  0
  3  4  2  0
  4  5  1  0
  5  6  1  0
  6  7  2  0
  6  8  1  0
  5  9  2  0
  9 10  1  0
 10 11  2  0
 11 12  1  0
 12 13  1  0
 13 14  2  0
 13 15  1  0
 15 16  1  0
 16 17  1  6
 16 18  1  0
 18 19  1  0
 18 20  1  0
 18 21  1  0
 11  3  1  0
M  CHG  2   6   1   8  -1
M  END
>  <tags>  (153) 
{'openbind_a71ev2a_c1_knitwork_pure', 'fragmenstein_placed'}

>  <distance_score>  (153) 
0.982212

>  <ref_mols>  (153) 
A1445a,A3548a

>  <smiles>  (153) 
COc1cc([N+](=O)[O-])cnc1NC(=O)C[C@@H](C)C(F)(F)F

>  <HIPPO Pose ID>  (153) 
186266

>  <inchikey>  (153) 
CFGXRPXLHNPYEB-UHFFFAOYSA-N

>  <ref_pdb>  (153) 
A1180a

>  <alias>  (153) 
C51401-P213

>  <energy_score>  (153) 
-3.967743

>  <HIPPO Compound ID>  (153) 
64811

$$$$
C107104-P174
     RDKit          3D

 19 20  0  0  0  0  0  0  0  0999 V2000
    5.6623   12.3272   26.1336 C   0  0  0  0  0  0  0  0  0  0  0  0
    6.4569   11.1566   26.7014 C   0  0  0  0  0  0  0  0  0  0  0  0
    5.5909   10.4172   27.7247 C   0  0  0  0  0  0  0  0  0  0  0  0
    6.9971   10.2011   25.6261 C   0  0  0  0  0  0  0  0  0  0  0  0
    8.0049   10.7959   24.7054 C   0  0  0  0  0  0  0  0  0  0  0  0
    8.4031   10.3084   23.4850 C   0  0  0  0  0  0  0  0  0  0  0  0
    9.0403   11.3163   22.8320 O   0  0  0  0  0  0  0  0  0  0  0  0
    9.1206   12.3158   23.7514 C   0  0  0  0  0  0  0  0  0  0  0  0
    9.6956   13.4691   23.3614 N   0  0  0  0  0  0  0  0  0  0  0  0
    9.5867   14.2465   22.0228 C   0  0  0  0  0  0  0  0  0  0  0  0
    8.9227   14.0463   21.0837 O   0  0  0  0  0  0  0  0  0  0  0  0
   10.6054   15.3670   22.0557 C   0  0  0  0  0  0  0  0  0  0  0  0
   12.0096   14.8647   21.7224 C   0  0  0  0  0  0  0  0  0  0  0  0
   12.7204   15.7830   20.7960 C   0  0  0  0  0  0  0  0  0  0  0  0
   13.5292   16.8665   21.0600 C   0  0  0  0  0  0  0  0  0  0  0  0
   13.8829   17.3577   19.8353 N   0  0  0  0  0  0  0  0  0  0  0  0
   13.2988   16.5673   18.8932 C   0  0  0  0  0  0  0  0  0  0  0  0
   12.5982   15.6049   19.4432 N   0  0  0  0  0  0  0  0  0  0  0  0
    8.6448   12.0010   24.9369 N   0  0  0  0  0  0  0  0  0  0  0  0
  1  2  1  0
  2  3  1  0
  2  4  1  0
  4  5  1  0
  5  6  2  0
  6  7  1  0
  7  8  1  0
  8  9  1  0
  9 10  1  0
 10 11  2  0
 10 12  1  0
 12 13  1  0
 13 14  1  0
 14 15  2  0
 15 16  1  0
 16 17  1  0
 17 18  2  0
  8 19  2  0
 19  5  1  0
 18 14  1  0
M  END
>  <tags>  (154) 
{'openbind_a71ev2a_c1_knitwork_pure', 'fragmenstein_placed'}

>  <distance_score>  (154) 
0.963833

>  <ref_mols>  (154) 
A4311a,A3371a

>  <smiles>  (154) 
CC(C)Cc1coc(NC(=O)CCc2c[nH]cn2)n1

>  <HIPPO Pose ID>  (154) 
188490

>  <inchikey>  (154) 
CTFJRCJMDOHUDJ-UHFFFAOYSA-N

>  <ref_pdb>  (154) 
A0528b

>  <alias>  (154) 
C107104-P174

>  <energy_score>  (154) 
-37.204348

>  <HIPPO Compound ID>  (154) 
52416

$$$$
C52375-P405
     RDKit          3D

 23 25  0  0  0  0  0  0  0  0999 V2000
    9.7402   10.1603   24.3974 C   0  0  0  0  0  0  0  0  0  0  0  0
    9.6871   11.6535   24.1227 C   0  0  0  0  0  0  0  0  0  0  0  0
    8.7466   12.3503   25.0890 C   0  0  0  0  0  0  0  0  0  0  0  0
    7.3722   11.6826   25.0843 C   0  0  2  0  0  0  0  0  0  0  0  0
    6.4082   12.3254   26.0945 C   0  0  0  0  0  0  0  0  0  0  0  0
    6.6249   13.7312   26.1757 O   0  0  0  0  0  0  0  0  0  0  0  0
    5.9034   14.3381   27.2446 C   0  0  0  0  0  0  0  0  0  0  0  0
    6.4215   15.7644   27.3819 C   0  0  0  0  0  0  0  0  0  0  0  0
    5.7981   16.4764   28.5851 C   0  0  0  0  0  0  0  0  0  0  0  0
    6.2662   17.8450   28.8474 N   0  0  0  0  0  0  0  0  0  0  0  0
    5.9521   18.7649   27.7495 C   0  0  0  0  0  0  0  0  0  0  0  0
    6.2952   20.2026   28.1235 C   0  0  0  0  0  0  0  0  0  0  0  0
    7.7817   20.3463   28.5064 C   0  0  0  0  0  0  0  0  0  0  0  0
    8.0543   21.7565   28.8676 N   0  0  0  0  0  0  0  0  0  0  0  0
    7.9413   22.6411   27.6758 C   0  0  0  0  0  0  0  0  0  0  0  0
    9.1056   23.6308   27.4712 C   0  0  0  0  0  0  0  0  0  0  0  0
   10.4210   22.9867   27.5421 N   0  0  0  0  0  0  0  0  0  0  0  0
   10.5450   22.0773   28.6836 C   0  0  0  0  0  0  0  0  0  0  0  0
    9.3066   22.0118   29.5875 C   0  0  0  0  0  0  0  0  0  0  0  0
    8.0886   19.3277   29.6209 C   0  0  0  0  0  0  0  0  0  0  0  0
    7.6809   17.9112   29.2119 C   0  0  0  0  0  0  0  0  0  0  0  0
    7.4943   10.2858   25.3930 O   0  0  0  0  0  0  0  0  0  0  0  0
    8.3516    9.5744   24.5010 C   0  0  0  0  0  0  0  0  0  0  0  0
  1  2  1  0
  2  3  1  0
  3  4  1  0
  4  5  1  1
  5  6  1  0
  6  7  1  0
  7  8  1  0
  8  9  1  0
  9 10  1  0
 10 11  1  0
 11 12  1  0
 12 13  1  0
 13 14  1  0
 14 15  1  0
 15 16  1  0
 16 17  1  0
 17 18  1  0
 18 19  1  0
 13 20  1  0
 20 21  1  0
  4 22  1  0
 22 23  1  0
 23  1  1  0
 21 10  1  0
 19 14  1  0
M  END
>  <tags>  (155) 
{'openbind_a71ev2a_c1_knitwork_pure', 'fragmenstein_placed'}

>  <distance_score>  (155) 
0.93701

>  <ref_mols>  (155) 
A4570a,A0469a

>  <smiles>  (155) 
C1CC[C@H](COCCCN2CCC(N3CCNCC3)CC2)OC1

>  <HIPPO Pose ID>  (155) 
189206

>  <inchikey>  (155) 
PBWKBAOPCODYPW-UHFFFAOYSA-N

>  <ref_pdb>  (155) 
A0528b

>  <alias>  (155) 
C52375-P405

>  <energy_score>  (155) 
-70.663425

>  <HIPPO Compound ID>  (155) 
52375

$$$$
C50753-P248
     RDKit          3D

 14 14  0  0  0  0  0  0  0  0999 V2000
    8.2707   14.9932   26.3212 C   0  0  0  0  0  0  0  0  0  0  0  0
    8.2615   14.5101   24.8671 C   0  0  2  0  0  0  0  0  0  0  0  0
    6.9807   14.9883   24.1869 C   0  0  0  0  0  0  0  0  0  0  0  0
    7.1090   14.8637   22.4174 S   0  0  0  0  0  0  0  0  0  0  0  0
    5.7767   15.7664   21.9601 N   0  0  0  0  0  0  0  0  0  0  0  0
    8.2649   15.5959   21.9639 O   0  0  0  0  0  0  0  0  0  0  0  0
    6.8567   13.5102   21.9684 O   0  0  0  0  0  0  0  0  0  0  0  0
    8.4298   13.0617   24.7785 N   0  0  0  0  0  0  0  0  0  0  0  0
    9.3966   12.4385   23.9051 C   0  0  0  0  0  0  0  0  0  0  0  0
    8.8610   11.0290   23.6902 C   0  0  1  0  0  0  0  0  0  0  0  0
    9.8491   10.0275   23.7590 O   0  0  0  0  0  0  0  0  0  0  0  0
    7.8339   10.7889   24.7804 C   0  0  0  0  0  0  0  0  0  0  0  0
    7.5241   12.1559   25.2895 C   0  0  0  0  0  0  0  0  0  0  0  0
    6.6218   12.4227   26.0645 O   0  0  0  0  0  0  0  0  0  0  0  0
  2  1  1  1
  2  3  1  0
  3  4  1  0
  4  5  1  0
  4  6  2  0
  4  7  2  0
  2  8  1  0
  8  9  1  0
  9 10  1  0
 10 11  1  1
 10 12  1  0
 12 13  1  0
 13 14  2  0
 13  8  1  0
M  END
>  <tags>  (156) 
{'openbind_a71ev2a_c1_knitwork_pure', 'fragmenstein_placed'}

>  <distance_score>  (156) 
0.936937

>  <ref_mols>  (156) 
A3956a,A0719a

>  <smiles>  (156) 
C[C@H](CS(N)(=O)=O)N1C[C@@H](O)CC1=O

>  <HIPPO Pose ID>  (156) 
191325

>  <inchikey>  (156) 
RBNSWXUVCCJWGP-UHFFFAOYSA-N

>  <ref_pdb>  (156) 
A0528b

>  <alias>  (156) 
C50753-P248

>  <energy_score>  (156) 
-39.003793

>  <HIPPO Compound ID>  (156) 
104894

$$$$
C74114-P9
     RDKit          3D

 24 26  0  0  0  0  0  0  0  0999 V2000
   11.5401   16.1377    0.5086 C   0  0  0  0  0  0  0  0  0  0  0  0
   11.7950   15.9616    2.0087 C   0  0  2  0  0  0  0  0  0  0  0  0
   10.6253   16.5640    2.8523 C   0  0  0  0  0  0  0  0  0  0  0  0
    9.5393   15.5783    2.9344 N   0  0  0  0  0  0  0  0  0  0  0  0
    8.4890   15.8607    3.9452 C   0  0  0  0  0  0  0  0  0  0  0  0
    7.7931   14.5761    4.3211 C   0  0  0  0  0  0  0  0  0  0  0  0
    7.6143   13.4032    3.5429 C   0  0  0  0  0  0  0  0  0  0  0  0
    7.0236   12.5098    4.3943 C   0  0  0  0  0  0  0  0  0  0  0  0
    6.8186   13.1024    5.5931 O   0  0  0  0  0  0  0  0  0  0  0  0
    7.2691   14.4111    5.5488 N   0  0  0  0  0  0  0  0  0  0  0  0
   13.1712   16.5395    2.4062 C   0  0  0  0  0  0  0  0  0  0  0  0
   14.2596   15.6005    2.1622 N   0  0  0  0  0  0  0  0  0  0  0  0
   15.2351   14.8948    3.1618 C   0  0  0  0  0  0  0  0  0  0  0  0
   15.2581   14.9042    4.3331 O   0  0  0  0  0  0  0  0  0  0  0  0
   16.2182   14.0241    2.3460 C   0  0  0  0  0  0  0  0  0  0  0  0
   17.6597   14.4242    2.4922 C   0  0  0  0  0  0  0  0  0  0  0  0
   18.6058   13.5107    2.7798 N   0  0  0  0  0  0  0  0  0  0  0  0
   19.7594   14.2085    2.7390 N   0  0  0  0  0  0  0  0  0  0  0  0
   19.6071   15.5120    2.3522 C   0  0  0  0  0  0  0  0  0  0  0  0
   20.5443   16.5250    2.1267 C   0  0  0  0  0  0  0  0  0  0  0  0
   20.0483   17.7804    1.7671 C   0  0  0  0  0  0  0  0  0  0  0  0
   18.6778   18.0031    1.6414 C   0  0  0  0  0  0  0  0  0  0  0  0
   17.7582   16.9712    1.8649 C   0  0  0  0  0  0  0  0  0  0  0  0
   18.2358   15.6993    2.2268 C   0  0  0  0  0  0  0  0  0  0  0  0
  2  1  1  6
  2  3  1  0
  3  4  1  0
  4  5  1  0
  5  6  1  0
  6  7  1  0
  7  8  2  0
  8  9  1  0
  9 10  1  0
  2 11  1  0
 11 12  1  0
 12 13  1  0
 13 14  2  0
 13 15  1  0
 15 16  1  0
 16 17  2  0
 17 18  1  0
 18 19  1  0
 19 20  2  0
 20 21  1  0
 21 22  2  0
 22 23  1  0
 23 24  2  0
 10  6  2  0
 24 16  1  0
 24 19  1  0
M  END
>  <tags>  (157) 
{'openbind_a71ev2a_c1_knitwork_pure', 'fragmenstein_placed'}

>  <distance_score>  (157) 
0.943951

>  <ref_mols>  (157) 
A0486a,A0541a

>  <smiles>  (157) 
C[C@H](CNCc1ccon1)CNC(=O)Cc1n[nH]c2ccccc12

>  <HIPPO Pose ID>  (157) 
191560

>  <inchikey>  (157) 
UDHNRVXHVXPDPQ-UHFFFAOYSA-N

>  <ref_pdb>  (157) 
A0528b

>  <alias>  (157) 
C74114-P9

>  <energy_score>  (157) 
-37.396448

>  <HIPPO Compound ID>  (157) 
53750

$$$$
C74115-P9
     RDKit          3D

 25 27  0  0  0  0  0  0  0  0999 V2000
   11.5896   15.5605    0.3209 C   0  0  0  0  0  0  0  0  0  0  0  0
   11.8321   15.6045    1.8321 C   0  0  2  0  0  0  0  0  0  0  0  0
   10.6421   16.3124    2.5708 C   0  0  0  0  0  0  0  0  0  0  0  0
    9.4470   15.4499    2.6322 N   0  0  0  0  0  0  0  0  0  0  0  0
    8.4907   15.7787    3.7296 C   0  0  0  0  0  0  0  0  0  0  0  0
    7.7407   14.5389    4.1549 C   0  0  0  0  0  0  0  0  0  0  0  0
    7.3073   13.4519    3.3545 C   0  0  0  0  0  0  0  0  0  0  0  0
    6.8167   12.5401    4.2498 C   0  0  0  0  0  0  0  0  0  0  0  0
    6.8939   13.0519    5.5006 O   0  0  0  0  0  0  0  0  0  0  0  0
    7.4417   14.3223    5.4477 N   0  0  0  0  0  0  0  0  0  0  0  0
   13.1941   16.2677    2.1548 C   0  0  0  0  0  0  0  0  0  0  0  0
   14.3414   15.3783    1.9880 N   0  0  0  0  0  0  0  0  0  0  0  0
   15.3285   14.7809    3.0501 C   0  0  0  0  0  0  0  0  0  0  0  0
   15.3185   14.8529    4.2206 O   0  0  0  0  0  0  0  0  0  0  0  0
   16.4154   13.9564    2.3099 C   0  0  0  0  0  0  0  0  0  0  0  0
   17.8149   14.5097    2.4294 C   0  0  0  0  0  0  0  0  0  0  0  0
   18.8714   13.6969    2.6376 N   0  0  0  0  0  0  0  0  0  0  0  0
   19.9472   14.5212    2.5590 N   0  0  0  0  0  0  0  0  0  0  0  0
   21.2833   14.0018    2.7609 C   0  0  0  0  0  0  0  0  0  0  0  0
   19.6269   15.8217    2.2644 C   0  0  0  0  0  0  0  0  0  0  0  0
   20.4198   16.9584    2.0474 C   0  0  0  0  0  0  0  0  0  0  0  0
   19.7660   18.1576    1.7639 C   0  0  0  0  0  0  0  0  0  0  0  0
   18.3771   18.2168    1.7027 C   0  0  0  0  0  0  0  0  0  0  0  0
   17.5999   17.0733    1.9180 C   0  0  0  0  0  0  0  0  0  0  0  0
   18.2364   15.8519    2.2040 C   0  0  0  0  0  0  0  0  0  0  0  0
  2  1  1  6
  2  3  1  0
  3  4  1  0
  4  5  1  0
  5  6  1  0
  6  7  1  0
  7  8  2  0
  8  9  1  0
  9 10  1  0
  2 11  1  0
 11 12  1  0
 12 13  1  0
 13 14  2  0
 13 15  1  0
 15 16  1  0
 16 17  2  0
 17 18  1  0
 18 19  1  0
 18 20  1  0
 20 21  2  0
 21 22  1  0
 22 23  2  0
 23 24  1  0
 24 25  2  0
 10  6  2  0
 25 16  1  0
 25 20  1  0
M  END
>  <tags>  (158) 
{'openbind_a71ev2a_c1_knitwork_pure', 'fragmenstein_placed'}

>  <distance_score>  (158) 
0.967361

>  <ref_mols>  (158) 
A0486a,A0541a

>  <smiles>  (158) 
C[C@H](CNCc1ccon1)CNC(=O)Cc1nn(C)c2ccccc12

>  <HIPPO Pose ID>  (158) 
191562

>  <inchikey>  (158) 
QGEQCOIPUBEYKU-UHFFFAOYSA-N

>  <ref_pdb>  (158) 
A0528b

>  <alias>  (158) 
C74115-P9

>  <energy_score>  (158) 
-29.12269

>  <HIPPO Compound ID>  (158) 
52408

$$$$
C106645-P363
     RDKit          3D

 15 17  0  0  0  0  0  0  0  0999 V2000
   12.5661   15.5223   22.9699 O   0  0  0  0  0  0  0  0  0  0  0  0
   11.7746   14.8737   22.2961 C   0  0  0  0  0  0  0  0  0  0  0  0
   11.0913   13.6072   22.7717 C   0  0  0  0  0  0  0  0  0  0  0  0
   11.0419   13.4411   24.2906 C   0  0  0  0  0  0  0  0  0  0  0  0
   10.2441   12.2402   24.7661 C   0  0  0  0  0  0  0  0  0  0  0  0
    9.8397   11.0620   23.9039 C   0  0  0  0  0  0  0  0  0  0  0  0
    8.7940   12.0069   24.3988 C   0  0  0  0  0  0  0  0  0  0  0  0
   10.6001   14.7225   24.9748 C   0  0  0  0  0  0  0  0  0  0  0  0
    9.4785   14.8630   25.9772 C   0  0  0  0  0  0  0  0  0  0  0  0
    9.2930   15.3528   24.5734 C   0  0  0  0  0  0  0  0  0  0  0  0
   11.3658   15.2678   20.9688 C   0  0  0  0  0  0  0  0  0  0  0  0
   10.4099   16.2364   20.7477 C   0  0  0  0  0  0  0  0  0  0  0  0
    9.9627   16.1945   19.1092 S   0  0  0  0  0  0  0  0  0  0  0  0
   11.1202   14.9923   18.8064 C   0  0  0  0  0  0  0  0  0  0  0  0
   11.7764   14.5533   19.8517 N   0  0  0  0  0  0  0  0  0  0  0  0
  1  2  2  0
  2  3  1  0
  3  4  1  0
  4  5  1  0
  5  6  1  0
  6  7  1  0
  4  8  1  0
  8  9  1  0
  9 10  1  0
  2 11  1  0
 11 12  2  0
 12 13  1  0
 13 14  1  0
 14 15  2  0
  7  5  1  0
 10  8  1  0
 15 11  1  0
M  END
>  <tags>  (159) 
{'openbind_a71ev2a_c1_knitwork_pure', 'fragmenstein_placed'}

>  <distance_score>  (159) 
0.995026

>  <ref_mols>  (159) 
A3306a,A4445a

>  <smiles>  (159) 
O=C(CC(C1CC1)C1CC1)c1cscn1

>  <HIPPO Pose ID>  (159) 
192116

>  <inchikey>  (159) 
MRFSLWKYICIDAF-UHFFFAOYSA-N

>  <ref_pdb>  (159) 
A0528b

>  <alias>  (159) 
C106645-P363

>  <energy_score>  (159) 
-49.140937

>  <HIPPO Compound ID>  (159) 
53625

$$$$
C52382-P224
     RDKit          3D

 21 23  0  0  0  0  0  0  0  0999 V2000
    8.9056   14.0988   21.4544 O   0  0  0  0  0  0  0  0  0  0  0  0
    9.4462   14.4635   22.7419 S   0  0  0  0  0  0  0  0  0  0  0  0
    9.1709   15.7465   23.3408 O   0  0  0  0  0  0  0  0  0  0  0  0
   11.2186   14.1342   22.8349 C   0  0  0  0  0  0  0  0  0  0  0  0
   12.0407   15.4243   22.7622 C   0  0  0  0  0  0  0  0  0  0  0  0
   12.2577   16.0506   21.3752 C   0  0  0  0  0  0  0  0  0  0  0  0
   11.1116   15.8712   20.4411 C   0  0  0  0  0  0  0  0  0  0  0  0
   11.0724   15.9569   18.9281 C   0  0  0  0  0  0  0  0  0  0  0  0
   11.2086   14.6412   19.5821 C   0  0  0  0  0  0  0  0  0  0  0  0
    8.7929   13.2686   23.7135 N   0  0  0  0  0  0  0  0  0  0  0  0
    8.2482   13.5475   25.0577 C   0  0  0  0  0  0  0  0  0  0  0  0
    7.6985   12.2318   25.6530 C   0  0  0  0  0  0  0  0  0  0  0  0
    6.6906   12.2187   26.6325 C   0  0  0  0  0  0  0  0  0  0  0  0
    6.0523   11.0393   26.9919 C   0  0  0  0  0  0  0  0  0  0  0  0
    6.4581    9.8757   26.3818 C   0  0  0  0  0  0  0  0  0  0  0  0
    7.4801    9.8073   25.5072 N   0  0  0  0  0  0  0  0  0  0  0  0
    8.0752   10.9778   25.1647 C   0  0  0  0  0  0  0  0  0  0  0  0
    9.3163   14.2194   25.9378 C   0  0  0  0  0  0  0  0  0  0  0  0
    8.5301   15.0151   26.9637 C   0  0  0  0  0  0  0  0  0  0  0  0
    7.3620   15.5751   26.1605 C   0  0  0  0  0  0  0  0  0  0  0  0
    7.1055   14.6007   25.0010 C   0  0  0  0  0  0  0  0  0  0  0  0
  1  2  2  0
  2  3  2  0
  2  4  1  0
  4  5  1  0
  5  6  1  0
  6  7  1  0
  7  8  1  0
  8  9  1  0
  2 10  1  0
 10 11  1  0
 11 12  1  0
 12 13  2  0
 13 14  1  0
 14 15  2  0
 15 16  1  0
 16 17  2  0
 11 18  1  0
 18 19  1  0
 19 20  1  0
 20 21  1  0
  9  7  1  0
 21 11  1  0
 17 12  1  0
M  END
>  <tags>  (160) 
{'openbind_a71ev2a_c1_knitwork_pure', 'fragmenstein_placed'}

>  <distance_score>  (160) 
0.867674

>  <ref_mols>  (160) 
A3849a,A0719a

>  <smiles>  (160) 
O=S(=O)(CCCC1CC1)NC1(c2cccnc2)CCCC1

>  <HIPPO Pose ID>  (160) 
192557

>  <inchikey>  (160) 
RPRHXEYBWVZIEC-UHFFFAOYSA-N

>  <ref_pdb>  (160) 
A0528b

>  <alias>  (160) 
C52382-P224

>  <energy_score>  (160) 
-40.596595

>  <HIPPO Compound ID>  (160) 
3809

$$$$
C52408-P224
     RDKit          3D

 24 26  0  0  0  0  0  0  0  0999 V2000
    8.0076   14.6685   26.5666 C   0  0  0  0  0  0  0  0  0  0  0  0
    8.1091   14.2588   25.0917 C   0  0  2  0  0  0  0  0  0  0  0  0
    6.8497   14.7169   24.3609 C   0  0  0  0  0  0  0  0  0  0  0  0
    7.0330   14.7181   22.5867 S   0  0  0  0  0  0  0  0  0  0  0  0
    8.1507   15.5675   22.2439 O   0  0  0  0  0  0  0  0  0  0  0  0
    6.9294   13.3761   22.0563 O   0  0  0  0  0  0  0  0  0  0  0  0
    5.6365   15.5871   22.1889 N   0  0  0  0  0  0  0  0  0  0  0  0
    4.4283   14.8309   21.8920 C   0  0  0  0  0  0  0  0  0  0  0  0
    3.8584   14.5980   20.6676 C   0  0  0  0  0  0  0  0  0  0  0  0
    2.6554   13.8762   20.9336 C   0  0  0  0  0  0  0  0  0  0  0  0
    1.6646   13.3611   19.9912 C   0  0  0  0  0  0  0  0  0  0  0  0
    1.7139   13.6393   18.6252 C   0  0  0  0  0  0  0  0  0  0  0  0
    0.7313   13.1301   17.7760 C   0  0  0  0  0  0  0  0  0  0  0  0
   -0.2689   12.3399   18.3155 C   0  0  0  0  0  0  0  0  0  0  0  0
   -0.3528   12.0342   19.6259 N   0  0  0  0  0  0  0  0  0  0  0  0
    0.6109   12.5576   20.4281 C   0  0  0  0  0  0  0  0  0  0  0  0
    2.5005   13.7010   22.2571 N   0  0  0  0  0  0  0  0  0  0  0  0
    3.6277   14.1951   22.7914 N   0  0  0  0  0  0  0  0  0  0  0  0
    8.3395   12.7690   24.9154 C   0  0  0  0  0  0  0  0  0  0  0  0
    7.5748   11.8073   25.5939 C   0  0  0  0  0  0  0  0  0  0  0  0
    7.7620   10.4454   25.3523 C   0  0  0  0  0  0  0  0  0  0  0  0
    8.6976   10.0271   24.4124 C   0  0  0  0  0  0  0  0  0  0  0  0
    9.4436   10.9714   23.7164 C   0  0  0  0  0  0  0  0  0  0  0  0
    9.2837   12.3309   23.9761 C   0  0  0  0  0  0  0  0  0  0  0  0
  2  1  1  1
  2  3  1  0
  3  4  1  0
  4  5  2  0
  4  6  2  0
  4  7  1  0
  7  8  1  0
  8  9  2  0
  9 10  1  0
 10 11  1  0
 11 12  2  0
 12 13  1  0
 13 14  2  0
 14 15  1  0
 15 16  2  0
 10 17  2  0
 17 18  1  0
  2 19  1  0
 19 20  2  0
 20 21  1  0
 21 22  2  0
 22 23  1  0
 23 24  2  0
 18  8  1  0
 24 19  1  0
 16 11  1  0
M  END
>  <tags>  (161) 
{'openbind_a71ev2a_c1_knitwork_pure', 'fragmenstein_placed'}

>  <distance_score>  (161) 
0.711714

>  <ref_mols>  (161) 
A3849a,A0719a

>  <smiles>  (161) 
C[C@H](CS(=O)(=O)Nc1cc(-c2cccnc2)n[nH]1)c1ccccc1

>  <HIPPO Pose ID>  (161) 
192564

>  <inchikey>  (161) 
CKCILQQJPFHCBG-UHFFFAOYSA-N

>  <ref_pdb>  (161) 
A0528b

>  <alias>  (161) 
C52408-P224

>  <energy_score>  (161) 
-42.538638

>  <HIPPO Compound ID>  (161) 
48539

$$$$
C66854-P120
     RDKit          3D

 19 19  0  0  0  0  0  0  0  0999 V2000
    8.0915   14.7006   23.4384 C   0  0  0  0  0  0  0  0  0  0  0  0
    8.7721   13.3663   23.7264 C   0  0  0  0  0  0  0  0  0  0  0  0
    9.9727   13.6115   24.6281 C   0  0  0  0  0  0  0  0  0  0  0  0
    7.8468   12.3407   24.2384 N   0  0  0  0  0  0  0  0  0  0  0  0
    8.1054   10.9259   24.0678 C   0  0  0  0  0  0  0  0  0  0  0  0
    6.9608   10.2076   24.7480 C   0  0  0  0  0  0  0  0  0  0  0  0
    6.5850   11.1715   25.8404 C   0  0  2  0  0  0  0  0  0  0  0  0
    5.3152   10.9587   26.4645 N   0  0  0  0  0  0  0  0  0  0  0  0
    4.9622   10.6031   27.9284 C   0  0  0  0  0  0  0  0  0  0  0  0
    5.6548   10.3531   28.8339 O   0  0  0  0  0  0  0  0  0  0  0  0
    3.4473   10.6277   28.0501 C   0  0  0  0  0  0  0  0  0  0  0  0
    3.0233   10.8405   29.5116 C   0  0  1  0  0  0  0  0  0  0  0  0
    3.3106   12.2762   29.9619 C   0  0  0  0  0  0  0  0  0  0  0  0
    1.5527   10.5221   29.6725 C   0  0  0  0  0  0  0  0  0  0  0  0
    1.1657   10.6508   30.9593 F   0  0  0  0  0  0  0  0  0  0  0  0
    1.2851    9.2508   29.2945 F   0  0  0  0  0  0  0  0  0  0  0  0
    0.7849   11.3374   28.9185 F   0  0  0  0  0  0  0  0  0  0  0  0
    6.9223   12.5461   25.2743 C   0  0  0  0  0  0  0  0  0  0  0  0
    6.5514   13.6081   25.7460 O   0  0  0  0  0  0  0  0  0  0  0  0
  1  2  1  0
  2  3  1  0
  2  4  1  0
  4  5  1  0
  5  6  1  0
  6  7  1  0
  7  8  1  6
  8  9  1  0
  9 10  2  0
  9 11  1  0
 11 12  1  0
 12 13  1  6
 12 14  1  0
 14 15  1  0
 14 16  1  0
 14 17  1  0
  7 18  1  0
 18 19  2  0
 18  4  1  0
M  END
>  <tags>  (162) 
{'openbind_a71ev2a_c1_knitwork_pure', 'fragmenstein_placed'}

>  <distance_score>  (162) 
0.672214

>  <ref_mols>  (162) 
A3956a,A1445a

>  <smiles>  (162) 
CC(C)N1CC[C@H](NC(=O)C[C@@H](C)C(F)(F)F)C1=O

>  <HIPPO Pose ID>  (162) 
192709

>  <inchikey>  (162) 
DRJGGQZLWYEHNT-UHFFFAOYSA-N

>  <ref_pdb>  (162) 
A0528b

>  <alias>  (162) 
C66854-P120

>  <energy_score>  (162) 
-18.134052

>  <HIPPO Compound ID>  (162) 
51256

$$$$
C2716-P8
     RDKit          3D

 11 12  0  0  0  0  0  0  0  0999 V2000
    3.1392   14.6646   21.1004 C   0  0  0  0  0  0  0  0  0  0  0  0
    2.0937   15.3229   20.6382 N   0  0  0  0  0  0  0  0  0  0  0  0
    1.8001   14.7139   19.4533 C   0  0  0  0  0  0  0  0  0  0  0  0
    2.7041   13.7076   19.2450 C   0  0  0  0  0  0  0  0  0  0  0  0
    2.7198   12.5434   18.3405 C   0  0  2  0  0  0  0  0  0  0  0  0
    1.5792   11.6417   18.8008 C   0  0  0  0  0  0  0  0  0  0  0  0
    1.8960   11.1086   20.1928 C   0  0  0  0  0  0  0  0  0  0  0  0
    3.2007   10.3251   20.1235 C   0  0  0  0  0  0  0  0  0  0  0  0
    4.2790   11.1427   19.6851 O   0  0  0  0  0  0  0  0  0  0  0  0
    4.0438   11.7859   18.4218 C   0  0  0  0  0  0  0  0  0  0  0  0
    3.5952   13.7045   20.2767 O   0  0  0  0  0  0  0  0  0  0  0  0
  1  2  2  0
  2  3  1  0
  3  4  2  0
  5  4  1  1
  5  6  1  0
  6  7  1  0
  7  8  1  0
  8  9  1  0
  9 10  1  0
  4 11  1  0
 11  1  1  0
 10  5  1  0
M  END
>  <tags>  (163) 
{'openbind_a71ev2a_c1_knitwork_pure', 'fragmenstein_placed'}

>  <distance_score>  (163) 
0.785102

>  <ref_mols>  (163) 
A0473a,A3623a

>  <smiles>  (163) 
c1ncc([C@@H]2CCCOC2)o1

>  <HIPPO Pose ID>  (163) 
194046

>  <inchikey>  (163) 
GNAHZGVSELLNGY-UHFFFAOYSA-N

>  <ref_pdb>  (163) 
A0528b

>  <alias>  (163) 
C2716-P8

>  <energy_score>  (163) 
-19.414183

>  <HIPPO Compound ID>  (163) 
104497

$$$$
C3806-P190
     RDKit          3D

 11 12  0  0  0  0  0  0  0  0999 V2000
    8.2853   14.4307   25.1940 C   0  0  0  0  0  0  0  0  0  0  0  0
    7.7315   15.6317   25.3744 N   0  0  0  0  0  0  0  0  0  0  0  0
    6.5432   15.5271   24.7592 N   0  0  0  0  0  0  0  0  0  0  0  0
    6.3183   14.2927   24.2280 C   0  0  0  0  0  0  0  0  0  0  0  0
    7.4438   13.5374   24.4899 C   0  0  0  0  0  0  0  0  0  0  0  0
    7.6764   12.1023   24.1148 C   0  0  1  0  0  0  0  0  0  0  0  0
    9.1177   11.8010   23.7101 C   0  0  0  0  0  0  0  0  0  0  0  0
    9.3591   10.3160   23.4335 C   0  0  0  0  0  0  0  0  0  0  0  0
    8.2604    9.3779   23.9054 C   0  0  0  0  0  0  0  0  0  0  0  0
    7.6079    9.7661   25.1439 N   0  0  0  0  0  0  0  0  0  0  0  0
    7.1762   11.1551   25.2166 C   0  0  0  0  0  0  0  0  0  0  0  0
  1  2  2  0
  2  3  1  0
  3  4  1  0
  4  5  2  0
  6  5  1  1
  6  7  1  0
  7  8  1  0
  8  9  1  0
  9 10  1  0
 10 11  1  0
  5  1  1  0
 11  6  1  0
M  END
>  <tags>  (164) 
{'openbind_a71ev2a_c1_knitwork_pure', 'fragmenstein_placed'}

>  <distance_score>  (164) 
0.981658

>  <ref_mols>  (164) 
A0556a,A3509a

>  <smiles>  (164) 
c1n[nH]cc1[C@H]1CCCNC1

>  <HIPPO Pose ID>  (164) 
195169

>  <inchikey>  (164) 
XBCUCSHTTYKLFQ-UHFFFAOYSA-N

>  <ref_pdb>  (164) 
A0528b

>  <alias>  (164) 
C3806-P190

>  <energy_score>  (164) 
-10.94545

>  <HIPPO Compound ID>  (164) 
47021

$$$$
C46321-P322
     RDKit          3D

 21 23  0  0  0  0  0  0  0  0999 V2000
   20.6415   20.4980   23.2322 C   0  0  0  0  0  0  0  0  0  0  0  0
   21.4096   21.1570   22.0972 C   0  0  0  0  0  0  0  0  0  0  0  0
   22.6974   20.3976   21.7847 C   0  0  0  0  0  0  0  0  0  0  0  0
   23.4677   20.9761   20.6427 C   0  0  0  0  0  0  0  0  0  0  0  0
   22.8829   21.1353   19.4480 N   0  0  0  0  0  0  0  0  0  0  0  0
   23.8846   21.5631   18.6556 N   0  0  0  0  0  0  0  0  0  0  0  0
   25.0853   21.7076   19.2946 C   0  0  0  0  0  0  0  0  0  0  0  0
   26.3422   22.0949   18.8219 C   0  0  0  0  0  0  0  0  0  0  0  0
   27.3671   22.2028   19.7676 C   0  0  0  0  0  0  0  0  0  0  0  0
   27.1390   21.9149   21.1199 C   0  0  0  0  0  0  0  0  0  0  0  0
   28.2106   22.2416   22.1134 C   0  0  0  0  0  0  0  0  0  0  0  0
   28.8229   23.2196   21.9543 O   0  0  0  0  0  0  0  0  0  0  0  0
   28.2384   21.2242   23.2669 N   0  0  0  0  0  0  0  0  0  0  0  0
   29.0984   21.1439   24.4308 C   0  0  1  0  0  0  0  0  0  0  0  0
   28.6327   20.0309   25.3722 C   0  0  0  0  0  0  0  0  0  0  0  0
   29.6042   19.8587   26.5362 C   0  0  0  0  0  0  0  0  0  0  0  0
   31.0379   19.6711   26.0440 C   0  0  0  0  0  0  0  0  0  0  0  0
   31.4610   20.7837   25.1997 N   0  0  0  0  0  0  0  0  0  0  0  0
   30.5741   20.9481   24.0378 C   0  0  0  0  0  0  0  0  0  0  0  0
   25.8800   21.4631   21.5538 C   0  0  0  0  0  0  0  0  0  0  0  0
   24.8364   21.3634   20.6162 C   0  0  0  0  0  0  0  0  0  0  0  0
  1  2  1  0
  2  3  1  0
  3  4  1  0
  4  5  2  0
  5  6  1  0
  6  7  1  0
  7  8  2  0
  8  9  1  0
  9 10  2  0
 10 11  1  0
 11 12  2  0
 11 13  1  0
 14 13  1  6
 14 15  1  0
 15 16  1  0
 16 17  1  0
 17 18  1  0
 18 19  1  0
 10 20  1  0
 20 21  2  0
 21  4  1  0
 21  7  1  0
 19 14  1  0
M  END
>  <tags>  (165) 
{'openbind_a71ev2a_c1_knitwork_pure', 'fragmenstein_placed'}

>  <distance_score>  (165) 
0.671335

>  <ref_mols>  (165) 
A3181b,A4351a

>  <smiles>  (165) 
CCCc1n[nH]c2ccc(C(=O)N[C@H]3CCCNC3)cc12

>  <HIPPO Pose ID>  (165) 
195292

>  <inchikey>  (165) 
GOZNAOOIESXJOY-UHFFFAOYSA-N

>  <ref_pdb>  (165) 
A0528b

>  <alias>  (165) 
C46321-P322

>  <energy_score>  (165) 
-20.930371

>  <HIPPO Compound ID>  (165) 
48652

$$$$
C46339-P322
     RDKit          3D

 16 18  0  0  0  0  0  0  0  0999 V2000
   27.3817   21.7200   19.3293 C   0  0  0  0  0  0  0  0  0  0  0  0
   26.2581   21.8142   18.4979 C   0  0  0  0  0  0  0  0  0  0  0  0
   25.0122   21.6976   19.1108 C   0  0  0  0  0  0  0  0  0  0  0  0
   23.7413   21.7208   18.6023 N   0  0  0  0  0  0  0  0  0  0  0  0
   22.7724   21.5595   19.5290 N   0  0  0  0  0  0  0  0  0  0  0  0
   23.4631   21.4223   20.6653 C   0  0  0  0  0  0  0  0  0  0  0  0
   24.8606   21.4947   20.4728 C   0  0  0  0  0  0  0  0  0  0  0  0
   26.0063   21.4274   21.2879 C   0  0  0  0  0  0  0  0  0  0  0  0
   27.2855   21.5233   20.7164 C   0  0  0  0  0  0  0  0  0  0  0  0
   28.4639   21.5855   21.4603 N   0  0  0  0  0  0  0  0  0  0  0  0
   28.5080   21.3720   22.9045 C   0  0  2  0  0  0  0  0  0  0  0  0
   29.8360   21.9366   23.4317 C   0  0  0  0  0  0  0  0  0  0  0  0
   30.0111   21.6129   24.9121 C   0  0  0  0  0  0  0  0  0  0  0  0
   29.8701   20.1145   25.1681 C   0  0  0  0  0  0  0  0  0  0  0  0
   28.5838   19.5890   24.6987 N   0  0  0  0  0  0  0  0  0  0  0  0
   28.4007   19.8735   23.2619 C   0  0  0  0  0  0  0  0  0  0  0  0
  1  2  2  0
  2  3  1  0
  3  4  1  0
  4  5  1  0
  5  6  2  0
  6  7  1  0
  7  8  1  0
  8  9  2  0
  9 10  1  0
 11 10  1  6
 11 12  1  0
 12 13  1  0
 13 14  1  0
 14 15  1  0
 15 16  1  0
  9  1  1  0
 16 11  1  0
  7  3  2  0
M  END
>  <tags>  (166) 
{'openbind_a71ev2a_c1_knitwork_pure', 'fragmenstein_placed'}

>  <distance_score>  (166) 
0.561327

>  <ref_mols>  (166) 
A3181b,A4351a

>  <smiles>  (166) 
c1cc2[nH]ncc2cc1N[C@@H]1CCCNC1

>  <HIPPO Pose ID>  (166) 
195300

>  <inchikey>  (166) 
KQQACZGRTAQEIS-UHFFFAOYSA-N

>  <ref_pdb>  (166) 
A0528b

>  <alias>  (166) 
C46339-P322

>  <energy_score>  (166) 
-31.837576

>  <HIPPO Compound ID>  (166) 
49171

$$$$
C46343-P322
     RDKit          3D

 20 22  0  0  0  0  0  0  0  0999 V2000
   22.9304   24.0088   17.6826 C   0  0  0  0  0  0  0  0  0  0  0  0
   23.1851   22.5134   17.6183 C   0  0  0  0  0  0  0  0  0  0  0  0
   23.7154   21.9952   18.8654 N   0  0  0  0  0  0  0  0  0  0  0  0
   22.8616   21.7077   19.8753 N   0  0  0  0  0  0  0  0  0  0  0  0
   23.6729   21.3257   20.8645 C   0  0  0  0  0  0  0  0  0  0  0  0
   25.0350   21.3355   20.4949 C   0  0  0  0  0  0  0  0  0  0  0  0
   26.2561   21.0294   21.1198 C   0  0  0  0  0  0  0  0  0  0  0  0
   27.4447   21.1478   20.3838 C   0  0  0  0  0  0  0  0  0  0  0  0
   27.4215   21.5529   19.0498 C   0  0  0  0  0  0  0  0  0  0  0  0
   28.5809   21.5882   18.2805 N   0  0  0  0  0  0  0  0  0  0  0  0
   30.0737   21.3851   18.6883 C   0  0  0  0  0  0  0  0  0  0  0  0
   30.5571   21.2347   19.7427 O   0  0  0  0  0  0  0  0  0  0  0  0
   30.8835   21.3891   17.3838 C   0  0  2  0  0  0  0  0  0  0  0  0
   32.2520   20.7224   17.5827 C   0  0  0  0  0  0  0  0  0  0  0  0
   33.0970   20.8448   16.3179 C   0  0  0  0  0  0  0  0  0  0  0  0
   33.1886   22.2982   15.8565 C   0  0  0  0  0  0  0  0  0  0  0  0
   31.8623   22.8889   15.6523 N   0  0  0  0  0  0  0  0  0  0  0  0
   31.0665   22.8268   16.8852 C   0  0  0  0  0  0  0  0  0  0  0  0
   26.2150   21.8848   18.4225 C   0  0  0  0  0  0  0  0  0  0  0  0
   25.0354   21.7675   19.1725 C   0  0  0  0  0  0  0  0  0  0  0  0
  1  2  1  0
  2  3  1  0
  3  4  1  0
  4  5  2  0
  5  6  1  0
  6  7  2  0
  7  8  1  0
  8  9  2  0
  9 10  1  0
 10 11  1  0
 11 12  2  0
 13 11  1  1
 13 14  1  0
 14 15  1  0
 15 16  1  0
 16 17  1  0
 17 18  1  0
  9 19  1  0
 19 20  2  0
 20  3  1  0
 20  6  1  0
 18 13  1  0
M  END
>  <tags>  (167) 
{'openbind_a71ev2a_c1_knitwork_pure', 'fragmenstein_placed'}

>  <distance_score>  (167) 
0.349023

>  <ref_mols>  (167) 
A3181b,A4351a

>  <smiles>  (167) 
CCn1ncc2ccc(NC(=O)[C@@H]3CCCNC3)cc21

>  <HIPPO Pose ID>  (167) 
195302

>  <inchikey>  (167) 
KUBMOMKAUGJXEF-UHFFFAOYSA-N

>  <ref_pdb>  (167) 
A0528b

>  <alias>  (167) 
C46343-P322

>  <energy_score>  (167) 
-24.659043

>  <HIPPO Compound ID>  (167) 
59004

$$$$
C46353-P322
     RDKit          3D

 17 19  0  0  0  0  0  0  0  0999 V2000
   27.3831   20.9292   20.5727 C   0  0  0  0  0  0  0  0  0  0  0  0
   27.4401   21.6230   19.3605 C   0  0  0  0  0  0  0  0  0  0  0  0
   26.2793   22.0698   18.6971 C   0  0  0  0  0  0  0  0  0  0  0  0
   26.3975   22.8837   17.4271 C   0  0  0  0  0  0  0  0  0  0  0  0
   25.1570   22.8781   16.6342 N   0  0  0  0  0  0  0  0  0  0  0  0
   25.2434   23.7900   15.4762 C   0  0  2  0  0  0  0  0  0  0  0  0
   24.9837   25.2420   15.9121 C   0  0  0  0  0  0  0  0  0  0  0  0
   24.9113   26.1724   14.7020 C   0  0  0  0  0  0  0  0  0  0  0  0
   23.9033   25.6735   13.6700 C   0  0  0  0  0  0  0  0  0  0  0  0
   24.2162   24.3107   13.2489 N   0  0  0  0  0  0  0  0  0  0  0  0
   24.2096   23.3905   14.3915 C   0  0  0  0  0  0  0  0  0  0  0  0
   25.0698   21.7647   19.3447 C   0  0  0  0  0  0  0  0  0  0  0  0
   23.7729   22.0221   18.9786 N   0  0  0  0  0  0  0  0  0  0  0  0
   22.8476   21.5757   19.8541 N   0  0  0  0  0  0  0  0  0  0  0  0
   23.5916   21.0187   20.8144 C   0  0  0  0  0  0  0  0  0  0  0  0
   24.9791   21.0869   20.5518 C   0  0  0  0  0  0  0  0  0  0  0  0
   26.1557   20.6606   21.1884 C   0  0  0  0  0  0  0  0  0  0  0  0
  1  2  2  0
  2  3  1  0
  3  4  1  0
  4  5  1  0
  6  5  1  1
  6  7  1  0
  7  8  1  0
  8  9  1  0
  9 10  1  0
 10 11  1  0
  3 12  2  0
 12 13  1  0
 13 14  1  0
 14 15  2  0
 15 16  1  0
 16 17  2  0
 17  1  1  0
 11  6  1  0
 16 12  1  0
M  END
>  <tags>  (168) 
{'openbind_a71ev2a_c1_knitwork_pure', 'fragmenstein_placed'}

>  <distance_score>  (168) 
0.310948

>  <ref_mols>  (168) 
A3181b,A4351a

>  <smiles>  (168) 
c1cc(CN[C@@H]2CCCNC2)c2[nH]ncc2c1

>  <HIPPO Pose ID>  (168) 
195307

>  <inchikey>  (168) 
MZJBBXTUYNVWJM-UHFFFAOYSA-N

>  <ref_pdb>  (168) 
A0528b

>  <alias>  (168) 
C46353-P322

>  <energy_score>  (168) 
-49.576298

>  <HIPPO Compound ID>  (168) 
7211

$$$$
C54664-P617
     RDKit          3D

 22 25  0  0  0  0  0  0  0  0999 V2000
   24.3811   28.2914   12.7599 O   0  0  0  0  0  0  0  0  0  0  0  0
   23.7673   27.4832   13.4374 C   0  0  0  0  0  0  0  0  0  0  0  0
   23.8117   27.3968   14.9316 C   0  0  0  0  0  0  0  0  0  0  0  0
   22.6618   26.4471   15.2992 C   0  0  2  0  0  0  0  0  0  0  0  0
   23.1254   25.3262   16.1526 N   0  0  0  0  0  0  0  0  0  0  0  0
   23.4801   25.7736   17.5015 C   0  0  0  0  0  0  0  0  0  0  0  0
   24.2700   24.6773   18.2174 C   0  0  0  0  0  0  0  0  0  0  0  0
   23.7563   23.2557   17.9062 C   0  0  0  0  0  0  0  0  0  0  0  0
   24.0001   22.3676   19.0408 N   0  0  0  0  0  0  0  0  0  0  0  0
   22.9837   21.9784   19.8515 N   0  0  0  0  0  0  0  0  0  0  0  0
   23.6068   21.3205   20.8327 C   0  0  0  0  0  0  0  0  0  0  0  0
   25.0083   21.2871   20.6759 C   0  0  0  0  0  0  0  0  0  0  0  0
   26.0951   20.7609   21.3966 C   0  0  0  0  0  0  0  0  0  0  0  0
   27.3901   20.9406   20.8954 C   0  0  0  0  0  0  0  0  0  0  0  0
   27.6036   21.6212   19.6981 C   0  0  0  0  0  0  0  0  0  0  0  0
   26.5341   22.1443   18.9654 C   0  0  0  0  0  0  0  0  0  0  0  0
   25.2431   21.9666   19.4851 C   0  0  0  0  0  0  0  0  0  0  0  0
   22.2969   23.3238   17.4565 C   0  0  0  0  0  0  0  0  0  0  0  0
   22.1573   24.2143   16.2154 C   0  0  0  0  0  0  0  0  0  0  0  0
   22.1416   26.0113   13.9299 C   0  0  0  0  0  0  0  0  0  0  0  0
   21.1288   25.3603   13.7162 O   0  0  0  0  0  0  0  0  0  0  0  0
   22.9223   26.5433   12.9591 N   0  0  0  0  0  0  0  0  0  0  0  0
  1  2  2  0
  2  3  1  0
  3  4  1  0
  4  5  1  1
  5  6  1  0
  6  7  1  0
  7  8  1  0
  8  9  1  0
  9 10  1  0
 10 11  2  0
 11 12  1  0
 12 13  2  0
 13 14  1  0
 14 15  2  0
 15 16  1  0
 16 17  2  0
  8 18  1  0
 18 19  1  0
  4 20  1  0
 20 21  2  0
 20 22  1  0
 22  2  1  0
 19  5  1  0
 17  9  1  0
 17 12  1  0
M  END
>  <tags>  (169) 
{'openbind_a71ev2a_c1_knitwork_pure', 'fragmenstein_placed'}

>  <distance_score>  (169) 
0.542563

>  <ref_mols>  (169) 
A5425a,A3181b

>  <smiles>  (169) 
O=C1C[C@H](N2CCC(n3ncc4ccccc43)CC2)C(=O)N1

>  <HIPPO Pose ID>  (169) 
195390

>  <inchikey>  (169) 
HMQRCRGWWKHSOQ-UHFFFAOYSA-N

>  <ref_pdb>  (169) 
A0528b

>  <alias>  (169) 
C54664-P617

>  <energy_score>  (169) 
-39.658447

>  <HIPPO Compound ID>  (169) 
27143

$$$$
C56883-P444
     RDKit          3D

 22 23  0  0  0  0  0  0  0  0999 V2000
    3.3738   12.5096   29.8460 C   0  0  0  0  0  0  0  0  0  0  0  0
    3.3369   11.0356   29.4252 C   0  0  2  0  0  0  0  0  0  0  0  0
    3.7246   10.8339   27.9509 C   0  0  0  0  0  0  0  0  0  0  0  0
    5.1203   11.3446   27.5698 C   0  0  0  0  0  0  0  0  0  0  0  0
    5.8757   11.8213   28.3195 O   0  0  0  0  0  0  0  0  0  0  0  0
    5.2086   11.1662   26.0322 N   0  0  0  0  0  0  0  0  0  0  0  0
    6.2049   11.6247   25.0893 C   0  0  0  0  0  0  0  0  0  0  0  0
    7.5323   10.8958   25.1550 C   0  0  0  0  0  0  0  0  0  0  0  0
    8.5948   11.6488   24.3591 C   0  0  0  0  0  0  0  0  0  0  0  0
    8.7871   12.9603   24.9403 N   0  0  0  0  0  0  0  0  0  0  0  0
   10.0063   13.6924   24.6288 C   0  0  0  0  0  0  0  0  0  0  0  0
   10.1222   14.2451   23.2448 C   0  0  0  0  0  0  0  0  0  0  0  0
   11.3305   14.5648   22.5725 C   0  0  0  0  0  0  0  0  0  0  0  0
   10.9258   15.0595   21.3628 C   0  0  0  0  0  0  0  0  0  0  0  0
    9.5710   15.0510   21.3031 O   0  0  0  0  0  0  0  0  0  0  0  0
    9.0583   14.5425   22.4851 N   0  0  0  0  0  0  0  0  0  0  0  0
    7.6270   13.7413   25.3445 C   0  0  0  0  0  0  0  0  0  0  0  0
    6.2847   13.1411   24.9639 C   0  0  0  0  0  0  0  0  0  0  0  0
    1.9265   10.5055   29.6582 C   0  0  0  0  0  0  0  0  0  0  0  0
    1.5776   10.6092   30.9610 F   0  0  0  0  0  0  0  0  0  0  0  0
    1.8070    9.2100   29.3111 F   0  0  0  0  0  0  0  0  0  0  0  0
    1.0155   11.2063   28.9409 F   0  0  0  0  0  0  0  0  0  0  0  0
  2  1  1  6
  2  3  1  0
  3  4  1  0
  4  5  2  0
  4  6  1  0
  6  7  1  0
  7  8  1  0
  8  9  1  0
  9 10  1  0
 10 11  1  0
 11 12  1  0
 12 13  1  0
 13 14  2  0
 14 15  1  0
 15 16  1  0
 10 17  1  0
 17 18  1  0
  2 19  1  0
 19 20  1  0
 19 21  1  0
 19 22  1  0
 18  7  1  0
 16 12  2  0
M  END
>  <tags>  (170) 
{'openbind_a71ev2a_c1_knitwork_pure', 'fragmenstein_placed'}

>  <distance_score>  (170) 
0.933921

>  <ref_mols>  (170) 
A1445a,A4712a

>  <smiles>  (170) 
C[C@H](CC(=O)NC1CCN(Cc2ccon2)CC1)C(F)(F)F

>  <HIPPO Pose ID>  (170) 
195448

>  <inchikey>  (170) 
CDHYUFIFKQHMBX-UHFFFAOYSA-N

>  <ref_pdb>  (170) 
A0528b

>  <alias>  (170) 
C56883-P444

>  <energy_score>  (170) 
-20.216541

>  <HIPPO Compound ID>  (170) 
122137

$$$$
C57129-P322
     RDKit          3D

 22 24  0  0  0  0  0  0  0  0999 V2000
   16.8551   13.9986    4.0547 O   0  0  0  0  0  0  0  0  0  0  0  0
   17.1798   14.7203    3.1961 C   0  0  0  0  0  0  0  0  0  0  0  0
   16.2545   15.8097    2.6565 C   0  0  0  0  0  0  0  0  0  0  0  0
   16.0553   16.9304    3.6919 C   0  0  2  0  0  0  0  0  0  0  0  0
   14.9071   17.8586    3.2390 C   0  0  0  0  0  0  0  0  0  0  0  0
   15.1776   19.3075    3.6274 C   0  0  0  0  0  0  0  0  0  0  0  0
   16.5056   19.7955    3.0358 C   0  0  0  0  0  0  0  0  0  0  0  0
   17.5632   18.7765    2.9807 N   0  0  0  0  0  0  0  0  0  0  0  0
   17.3426   17.7310    3.9786 C   0  0  0  0  0  0  0  0  0  0  0  0
   18.5382   14.8616    2.4624 N   0  0  0  0  0  0  0  0  0  0  0  0
   19.7457   14.0804    2.5692 C   0  0  0  0  0  0  0  0  0  0  0  0
   20.9729   14.9870    2.5573 C   0  0  0  0  0  0  0  0  0  0  0  0
   22.2755   14.2183    2.7857 C   0  0  0  0  0  0  0  0  0  0  0  0
   22.7293   13.5091    1.5609 C   0  0  0  0  0  0  0  0  0  0  0  0
   22.0984   13.4411    0.4052 N   0  0  0  0  0  0  0  0  0  0  0  0
   22.8887   12.7505   -0.4800 N   0  0  0  0  0  0  0  0  0  0  0  0
   23.9891   12.4069    0.1501 C   0  0  0  0  0  0  0  0  0  0  0  0
   23.9182   12.8451    1.4442 N   0  0  0  0  0  0  0  0  0  0  0  0
   24.9805   12.7172    2.4169 C   0  0  0  0  0  0  0  0  0  0  0  0
   26.0779   11.7474    1.9707 C   0  0  0  0  0  0  0  0  0  0  0  0
   26.4006   11.9129    0.4833 C   0  0  0  0  0  0  0  0  0  0  0  0
   25.1588   11.6617   -0.3752 C   0  0  0  0  0  0  0  0  0  0  0  0
  1  2  2  0
  2  3  1  0
  4  3  1  6
  4  5  1  0
  5  6  1  0
  6  7  1  0
  7  8  1  0
  8  9  1  0
  2 10  1  0
 10 11  1  0
 11 12  1  0
 12 13  1  0
 13 14  1  0
 14 15  2  0
 15 16  1  0
 16 17  2  0
 17 18  1  0
 18 19  1  0
 19 20  1  0
 20 21  1  0
 21 22  1  0
  9  4  1  0
 18 14  1  0
 22 17  1  0
M  END
>  <tags>  (171) 
{'openbind_a71ev2a_c1_knitwork_pure', 'fragmenstein_placed'}

>  <distance_score>  (171) 
0.692708

>  <ref_mols>  (171) 
A4351a,A0239a

>  <smiles>  (171) 
O=C(C[C@@H]1CCCNC1)NCCCc1nnc2n1CCCC2

>  <HIPPO Pose ID>  (171) 
195498

>  <inchikey>  (171) 
DXYSIYGLUVEQHU-UHFFFAOYSA-N

>  <ref_pdb>  (171) 
A0528b

>  <alias>  (171) 
C57129-P322

>  <energy_score>  (171) 
-39.961419

>  <HIPPO Compound ID>  (171) 
75326

$$$$
C57139-P322
     RDKit          3D

 20 22  0  0  0  0  0  0  0  0999 V2000
   21.0376   15.0346    2.4362 C   0  0  0  0  0  0  0  0  0  0  0  0
   22.2965   14.2430    2.7578 C   0  0  0  0  0  0  0  0  0  0  0  0
   22.7486   13.4366    1.5932 C   0  0  0  0  0  0  0  0  0  0  0  0
   22.0562   13.1465    0.5096 N   0  0  0  0  0  0  0  0  0  0  0  0
   22.8471   12.3930   -0.3215 N   0  0  0  0  0  0  0  0  0  0  0  0
   24.0201   12.2472    0.2563 C   0  0  0  0  0  0  0  0  0  0  0  0
   23.9842   12.8624    1.4806 N   0  0  0  0  0  0  0  0  0  0  0  0
   25.0866   12.9147    2.4155 C   0  0  0  0  0  0  0  0  0  0  0  0
   26.2180   11.9514    2.0517 C   0  0  0  0  0  0  0  0  0  0  0  0
   26.4669   11.9320    0.5408 C   0  0  0  0  0  0  0  0  0  0  0  0
   25.2046   11.4580   -0.1977 C   0  0  2  0  0  0  0  0  0  0  0  0
   25.3828   11.5002   -1.7278 C   0  0  0  0  0  0  0  0  0  0  0  0
   26.3443   11.9232   -2.2401 O   0  0  0  0  0  0  0  0  0  0  0  0
   24.1362   10.8059   -2.3440 N   0  0  0  0  0  0  0  0  0  0  0  0
   23.7754   10.5756   -3.7307 C   0  0  2  0  0  0  0  0  0  0  0  0
   22.2533   10.5406   -3.9087 C   0  0  0  0  0  0  0  0  0  0  0  0
   21.6648    9.1295   -3.8083 C   0  0  0  0  0  0  0  0  0  0  0  0
   22.5761    8.1596   -3.0648 C   0  0  0  0  0  0  0  0  0  0  0  0
   23.8814    8.0217   -3.7033 N   0  0  0  0  0  0  0  0  0  0  0  0
   24.4158    9.2759   -4.2613 C   0  0  0  0  0  0  0  0  0  0  0  0
  1  2  1  0
  2  3  1  0
  3  4  2  0
  4  5  1  0
  5  6  2  0
  6  7  1  0
  7  8  1  0
  8  9  1  0
  9 10  1  0
 10 11  1  0
 11 12  1  6
 12 13  2  0
 12 14  1  0
 15 14  1  1
 15 16  1  0
 16 17  1  0
 17 18  1  0
 18 19  1  0
 19 20  1  0
  7  3  1  0
 20 15  1  0
 11  6  1  0
M  END
>  <tags>  (172) 
{'openbind_a71ev2a_c1_knitwork_pure', 'fragmenstein_placed'}

>  <distance_score>  (172) 
0.497774

>  <ref_mols>  (172) 
A4351a,A0239a

>  <smiles>  (172) 
CCc1nnc2n1CCC[C@@H]2C(=O)N[C@@H]1CCCNC1

>  <HIPPO Pose ID>  (172) 
195501

>  <inchikey>  (172) 
LPMIQRKPJGOMRG-UHFFFAOYSA-N

>  <ref_pdb>  (172) 
A0528b

>  <alias>  (172) 
C57139-P322

>  <energy_score>  (172) 
-33.603418

>  <HIPPO Compound ID>  (172) 
74188

$$$$
C53768-P257
     RDKit          3D

 15 16  0  0  0  0  0  0  0  0999 V2000
   12.0685   14.1510   25.2150 Cl  0  0  0  0  0  0  0  0  0  0  0  0
   11.9520   14.8213   23.5667 C   0  0  0  0  0  0  0  0  0  0  0  0
   10.6557   15.6147   23.2878 C   0  0  1  0  0  0  0  0  0  0  0  0
   10.9435   16.5665   22.1201 C   0  0  0  0  0  0  0  0  0  0  0  0
   10.5136   15.7909   20.8985 C   0  0  0  0  0  0  0  0  0  0  0  0
    9.2381   15.1588   21.4074 C   0  0  0  0  0  0  0  0  0  0  0  0
    9.5731   14.7392   22.7758 N   0  0  0  0  0  0  0  0  0  0  0  0
    8.3696   14.6491   23.6131 C   0  0  0  0  0  0  0  0  0  0  0  0
    8.5640   13.8821   24.9455 C   0  0  0  0  0  0  0  0  0  0  0  0
    8.7771   12.4179   24.9194 N   0  0  0  0  0  0  0  0  0  0  0  0
    9.5012   11.9626   23.7276 C   0  0  0  0  0  0  0  0  0  0  0  0
    9.8394   10.4854   23.7441 C   0  0  0  0  0  0  0  0  0  0  0  0
    8.7421    9.5919   24.2513 C   0  0  0  0  0  0  0  0  0  0  0  0
    7.7967   10.2329   25.2468 C   0  0  0  0  0  0  0  0  0  0  0  0
    7.5078   11.7031   25.0186 C   0  0  0  0  0  0  0  0  0  0  0  0
  1  2  1  0
  3  2  1  6
  3  4  1  0
  4  5  1  0
  5  6  1  0
  6  7  1  0
  7  8  1  0
  8  9  1  0
  9 10  1  0
 10 11  1  0
 11 12  1  0
 12 13  1  0
 13 14  1  0
 14 15  1  0
  7  3  1  0
 15 10  1  0
M  END
>  <tags>  (173) 
{'openbind_a71ev2a_c1_knitwork_pure', 'fragmenstein_placed'}

>  <distance_score>  (173) 
0.972276

>  <ref_mols>  (173) 
A3986b,A1140a

>  <smiles>  (173) 
ClC[C@H]1CCCN1CCN1CCCCC1

>  <HIPPO Pose ID>  (173) 
195866

>  <inchikey>  (173) 
VHVSAXROEBTQDV-UHFFFAOYSA-N

>  <ref_pdb>  (173) 
A0528b

>  <alias>  (173) 
C53768-P257

>  <energy_score>  (173) 
-20.95702

>  <HIPPO Compound ID>  (173) 
55819

$$$$
C48170-P128
     RDKit          3D

 10 10  0  0  0  0  0  0  0  0999 V2000
   10.6542   13.3439   23.2399 C   0  0  0  0  0  0  0  0  0  0  0  0
   10.0089   12.0501   23.5866 C   0  0  0  0  0  0  0  0  0  0  0  0
   10.6154   10.9162   23.2497 N   0  0  0  0  0  0  0  0  0  0  0  0
    9.8158    9.9322   23.6685 N   0  0  0  0  0  0  0  0  0  0  0  0
    8.7015   10.4007   24.2836 C   0  0  0  0  0  0  0  0  0  0  0  0
    8.7746   11.7798   24.2249 C   0  0  0  0  0  0  0  0  0  0  0  0
    7.7181   12.7088   24.6883 C   0  0  2  0  0  0  0  0  0  0  0  0
    7.5257   13.9090   23.7725 C   0  0  0  0  0  0  0  0  0  0  0  0
    7.8776   13.0521   26.1370 C   0  0  0  0  0  0  0  0  0  0  0  0
    7.4222   12.3471   27.0385 O   0  0  0  0  0  0  0  0  0  0  0  0
  1  2  1  0
  2  3  2  0
  3  4  1  0
  4  5  1  0
  5  6  2  0
  6  7  1  0
  7  8  1  6
  7  9  1  0
  9 10  2  0
  6  2  1  0
M  END
>  <tags>  (174) 
{'openbind_a71ev2a_c1_knitwork_pure', 'fragmenstein_placed'}

>  <distance_score>  (174) 
0.897073

>  <ref_mols>  (174) 
A2304a,A4586a

>  <smiles>  (174) 
Cc1n[nH]cc1[C@H](C)C=O

>  <HIPPO Pose ID>  (174) 
197401

>  <inchikey>  (174) 
HKLVJOPELRROKJ-UHFFFAOYSA-N

>  <ref_pdb>  (174) 
A0528b

>  <alias>  (174) 
C48170-P128

>  <energy_score>  (174) 
-8.190859

>  <HIPPO Compound ID>  (174) 
65008

$$$$
C48181-P128
     RDKit          3D

 18 18  0  0  0  0  0  0  0  0999 V2000
    9.1334   14.3812   25.2133 C   0  0  0  0  0  0  0  0  0  0  0  0
    8.1772   13.4903   24.4213 C   0  0  1  0  0  0  0  0  0  0  0  0
    7.6998   14.1492   23.1275 C   0  0  0  0  0  0  0  0  0  0  0  0
    7.4667   13.5385   22.0820 O   0  0  0  0  0  0  0  0  0  0  0  0
    8.8348   12.1895   24.1214 C   0  0  0  0  0  0  0  0  0  0  0  0
    9.9569   12.0482   23.2742 C   0  0  0  0  0  0  0  0  0  0  0  0
   10.2867   10.7817   23.0970 N   0  0  0  0  0  0  0  0  0  0  0  0
    9.3300   10.0995   23.7308 N   0  0  0  0  0  0  0  0  0  0  0  0
    9.3489    8.6734   23.5695 C   0  0  0  0  0  0  0  0  0  0  0  0
    8.5092   10.8988   24.4980 C   0  0  0  0  0  0  0  0  0  0  0  0
    7.5555   10.4447   25.3762 N   0  0  0  0  0  0  0  0  0  0  0  0
    6.8943   11.1368   26.5746 C   0  0  0  0  0  0  0  0  0  0  0  0
    6.9942   12.2281   26.9649 O   0  0  0  0  0  0  0  0  0  0  0  0
    6.1085   10.1898   27.1570 O   0  0  0  0  0  0  0  0  0  0  0  0
    5.3338   10.4942   28.3509 C   0  0  0  0  0  0  0  0  0  0  0  0
    4.4606    9.2523   28.5823 C   0  0  0  0  0  0  0  0  0  0  0  0
    4.4155   11.7105   28.1686 C   0  0  0  0  0  0  0  0  0  0  0  0
    6.2577   10.6787   29.5595 C   0  0  0  0  0  0  0  0  0  0  0  0
  2  1  1  6
  2  3  1  0
  3  4  2  0
  2  5  1  0
  5  6  1  0
  6  7  2  0
  7  8  1  0
  8  9  1  0
  8 10  1  0
 10 11  1  0
 11 12  1  0
 12 13  2  0
 12 14  1  0
 14 15  1  0
 15 16  1  0
 15 17  1  0
 15 18  1  0
 10  5  2  0
M  END
>  <tags>  (175) 
{'openbind_a71ev2a_c1_knitwork_pure', 'fragmenstein_placed'}

>  <distance_score>  (175) 
0.776651

>  <ref_mols>  (175) 
A2304a,A4586a

>  <smiles>  (175) 
C[C@@H](C=O)c1cnn(C)c1NC(=O)OC(C)(C)C

>  <HIPPO Pose ID>  (175) 
197409

>  <inchikey>  (175) 
YPDKDGPFUNQBCH-UHFFFAOYSA-N

>  <ref_pdb>  (175) 
A0528b

>  <alias>  (175) 
C48181-P128

>  <energy_score>  (175) 
-41.438717

>  <HIPPO Compound ID>  (175) 
14132

$$$$
C58995-P337
     RDKit          3D

 14 15  0  0  0  0  0  0  0  0999 V2000
    7.4924   15.4023   23.2341 C   0  0  0  0  0  0  0  0  0  0  0  0
    8.8233   15.3009   23.7986 N   0  0  0  0  0  0  0  0  0  0  0  0
    9.0224   14.5385   25.0110 C   0  0  0  0  0  0  0  0  0  0  0  0
    8.9724   13.0135   24.8010 C   0  0  0  0  0  0  0  0  0  0  0  0
    9.4590   12.4445   23.4668 C   0  0  0  0  0  0  0  0  0  0  0  0
    9.4593   10.9197   23.4882 C   0  0  0  0  0  0  0  0  0  0  0  0
    8.2304   10.3397   23.9894 N   0  0  0  0  0  0  0  0  0  0  0  0
    7.6602   10.9251   25.1800 C   0  0  0  0  0  0  0  0  0  0  0  0
    7.5873   12.4412   25.1162 C   0  0  0  0  0  0  0  0  0  0  0  0
    9.9079   15.4795   23.0072 C   0  0  0  0  0  0  0  0  0  0  0  0
   11.1816   15.4279   23.3488 N   0  0  0  0  0  0  0  0  0  0  0  0
   11.8486   15.5544   22.1571 C   0  0  0  0  0  0  0  0  0  0  0  0
   10.9471   15.6626   21.1294 C   0  0  0  0  0  0  0  0  0  0  0  0
    9.6970   15.6366   21.6657 O   0  0  0  0  0  0  0  0  0  0  0  0
  1  2  1  0
  2  3  1  0
  3  4  1  0
  4  5  1  0
  5  6  1  0
  6  7  1  0
  7  8  1  0
  8  9  1  0
  2 10  1  0
 10 11  2  0
 11 12  1  0
 12 13  2  0
 13 14  1  0
  9  4  1  0
 14 10  1  0
M  END
>  <tags>  (176) 
{'openbind_a71ev2a_c1_knitwork_pure', 'fragmenstein_placed'}

>  <distance_score>  (176) 
0.788187

>  <ref_mols>  (176) 
A3623a,A4214b

>  <smiles>  (176) 
CN(CC1CCNCC1)c1ncco1

>  <HIPPO Pose ID>  (176) 
197648

>  <inchikey>  (176) 
XFLRGLNKSUBAIU-UHFFFAOYSA-N

>  <ref_pdb>  (176) 
A0528b

>  <alias>  (176) 
C58995-P337

>  <energy_score>  (176) 
-53.455428

>  <HIPPO Compound ID>  (176) 
106545

$$$$
C117753-P445
     RDKit          3D

 14 15  0  0  0  0  0  0  0  0999 V2000
    5.8335   12.6134   26.5640 C   0  0  0  0  0  0  0  0  0  0  0  0
    6.7680   13.4936   25.7376 C   0  0  2  0  0  0  0  0  0  0  0  0
    6.0138   14.2271   24.6092 C   0  0  0  0  0  0  0  0  0  0  0  0
    6.3781   15.7315   24.4790 C   0  0  0  0  0  0  0  0  0  0  0  0
    5.2165   16.0313   25.3479 N   0  0  0  0  0  0  0  0  0  0  0  0
    4.5817   14.7948   24.8418 C   0  0  0  0  0  0  0  0  0  0  0  0
    7.9846   12.8047   25.2136 N   0  0  0  0  0  0  0  0  0  0  0  0
    9.0513   13.7207   24.7843 C   0  0  0  0  0  0  0  0  0  0  0  0
    8.0060   11.5233   24.7388 C   0  0  0  0  0  0  0  0  0  0  0  0
    7.2714   10.3834   25.1327 C   0  0  0  0  0  0  0  0  0  0  0  0
    7.6875    9.2648   24.5413 N   0  0  0  0  0  0  0  0  0  0  0  0
    8.6768    9.6891   23.7394 N   0  0  0  0  0  0  0  0  0  0  0  0
    9.4354    8.7454   22.9642 C   0  0  0  0  0  0  0  0  0  0  0  0
    8.8816   11.0345   23.7947 C   0  0  0  0  0  0  0  0  0  0  0  0
  2  1  1  6
  2  3  1  0
  3  4  1  0
  4  5  1  0
  5  6  1  0
  2  7  1  0
  7  8  1  0
  7  9  1  0
  9 10  1  0
 10 11  2  0
 11 12  1  0
 12 13  1  0
 12 14  1  0
  6  3  1  0
 14  9  2  0
M  END
>  <tags>  (177) 
{'openbind_a71ev2a_c1_knitwork_pure', 'fragmenstein_placed'}

>  <distance_score>  (177) 
0.507041

>  <ref_mols>  (177) 
A0556a,A4715a

>  <smiles>  (177) 
C[C@H](C1CNC1)N(C)c1cnn(C)c1

>  <HIPPO Pose ID>  (177) 
200934

>  <inchikey>  (177) 
RILULXWKHGGBSE-UHFFFAOYSA-N

>  <ref_pdb>  (177) 
A0556a

>  <alias>  (177) 
C117753-P445

>  <energy_score>  (177) 
-19.010339

>  <HIPPO Compound ID>  (177) 
50569

$$$$
C117762-P445
     RDKit          3D

 14 15  0  0  0  0  0  0  0  0999 V2000
    9.4449    9.4540   23.3475 C   0  0  0  0  0  0  0  0  0  0  0  0
    8.4995   10.2681   24.0763 N   0  0  0  0  0  0  0  0  0  0  0  0
    7.5121    9.6322   24.7539 N   0  0  0  0  0  0  0  0  0  0  0  0
    6.8275   10.6062   25.3436 C   0  0  0  0  0  0  0  0  0  0  0  0
    7.3700   11.8710   25.0866 C   0  0  0  0  0  0  0  0  0  0  0  0
    6.8977   13.1582   25.6270 C   0  0  0  0  0  0  0  0  0  0  0  0
    7.9338   14.0245   25.8050 F   0  0  0  0  0  0  0  0  0  0  0  0
    6.3264   12.9968   26.8443 F   0  0  0  0  0  0  0  0  0  0  0  0
    6.0001   13.7810   24.8331 F   0  0  0  0  0  0  0  0  0  0  0  0
    8.4660   11.6264   24.2735 C   0  0  0  0  0  0  0  0  0  0  0  0
    9.3961   12.8189   23.8521 C   0  0  0  0  0  0  0  0  0  0  0  0
   10.4088   12.7175   22.7283 C   0  0  0  0  0  0  0  0  0  0  0  0
    9.9178   13.9875   22.1618 N   0  0  0  0  0  0  0  0  0  0  0  0
    8.6877   13.8579   22.9429 C   0  0  0  0  0  0  0  0  0  0  0  0
  1  2  1  0
  2  3  1  0
  3  4  2  0
  4  5  1  0
  5  6  1  0
  6  7  1  0
  6  8  1  0
  6  9  1  0
  5 10  2  0
 10 11  1  0
 11 12  1  0
 12 13  1  0
 13 14  1  0
 10  2  1  0
 14 11  1  0
M  END
>  <tags>  (178) 
{'openbind_a71ev2a_c1_knitwork_pure', 'fragmenstein_placed'}

>  <distance_score>  (178) 
0.957195

>  <ref_mols>  (178) 
A0556a,A4715a

>  <smiles>  (178) 
Cn1ncc(C(F)(F)F)c1C1CNC1

>  <HIPPO Pose ID>  (178) 
200938

>  <inchikey>  (178) 
XIOYKRXGPYNPFZ-UHFFFAOYSA-N

>  <ref_pdb>  (178) 
A0556a

>  <alias>  (178) 
C117762-P445

>  <energy_score>  (178) 
-21.530985

>  <HIPPO Compound ID>  (178) 
124015

$$$$
C715-P557
     RDKit          3D

 12 13  0  0  0  0  0  0  0  0999 V2000
    9.3132   10.8079   23.6109 C   0  0  0  0  0  0  0  0  0  0  0  0
    8.4555   10.6281   24.6785 C   0  0  0  0  0  0  0  0  0  0  0  0
    7.9768   11.6427   25.4234 N   0  0  0  0  0  0  0  0  0  0  0  0
    8.3455   12.8954   25.0387 C   0  0  0  0  0  0  0  0  0  0  0  0
    9.1918   13.2018   23.9690 C   0  0  0  0  0  0  0  0  0  0  0  0
    9.5099   14.5238   23.6680 N   0  0  0  0  0  0  0  0  0  0  0  0
   10.8007   14.9902   24.1831 C   0  0  0  0  0  0  0  0  0  0  0  0
   11.9133   14.8299   23.1533 C   0  0  0  0  0  0  0  0  0  0  0  0
   11.5563   15.5322   21.8494 C   0  0  0  0  0  0  0  0  0  0  0  0
   10.2332   15.0033   21.3100 C   0  0  0  0  0  0  0  0  0  0  0  0
    9.1157   15.0594   22.3507 C   0  0  0  0  0  0  0  0  0  0  0  0
    9.6870   12.1085   23.2669 C   0  0  0  0  0  0  0  0  0  0  0  0
  1  2  2  0
  2  3  1  0
  3  4  2  0
  4  5  1  0
  5  6  1  0
  6  7  1  0
  7  8  1  0
  8  9  1  0
  9 10  1  0
 10 11  1  0
  5 12  2  0
 12  1  1  0
 11  6  1  0
M  END
>  <tags>  (179) 
{'openbind_a71ev2a_c1_knitwork_pure', 'fragmenstein_placed'}

>  <distance_score>  (179) 
0.917256

>  <ref_mols>  (179) 
A5079a,A2629a

>  <smiles>  (179) 
c1cncc(N2CCCCC2)c1

>  <HIPPO Pose ID>  (179) 
201698

>  <inchikey>  (179) 
LTOUESXDKSJFOU-UHFFFAOYSA-N

>  <ref_pdb>  (179) 
A0556a

>  <alias>  (179) 
C715-P557

>  <energy_score>  (179) 
-11.420581

>  <HIPPO Compound ID>  (179) 
42918

$$$$
C9536-P122
     RDKit          3D

  9  9  0  0  0  0  0  0  0  0999 V2000
   11.5017   11.1366   22.7910 C   0  0  0  0  0  0  0  0  0  0  0  0
   10.4156   10.1474   23.1876 C   0  0  1  0  0  0  0  0  0  0  0  0
   11.1072    8.9461   23.7463 C   0  0  0  0  0  0  0  0  0  0  0  0
   10.8546    7.7896   23.4319 O   0  0  0  0  0  0  0  0  0  0  0  0
    9.4154   10.7508   24.0681 N   0  0  0  0  0  0  0  0  0  0  0  0
    8.9407   12.0422   24.0114 C   0  0  0  0  0  0  0  0  0  0  0  0
    7.8456   12.1029   24.8388 C   0  0  0  0  0  0  0  0  0  0  0  0
    7.7504   10.8201   25.3813 C   0  0  0  0  0  0  0  0  0  0  0  0
    8.7054   10.0027   24.9300 N   0  0  0  0  0  0  0  0  0  0  0  0
  2  1  1  1
  2  3  1  0
  3  4  2  0
  2  5  1  0
  5  6  1  0
  6  7  2  0
  7  8  1  0
  8  9  2  0
  9  5  1  0
M  END
>  <tags>  (180) 
{'openbind_a71ev2a_c1_knitwork_pure', 'fragmenstein_placed'}

>  <distance_score>  (180) 
0.999823

>  <ref_mols>  (180) 
A1775a,A0556a

>  <smiles>  (180) 
C[C@@H](C=O)n1cccn1

>  <HIPPO Pose ID>  (180) 
202655

>  <inchikey>  (180) 
YZQNRVOHGUHPKI-UHFFFAOYSA-N

>  <ref_pdb>  (180) 
A0556a

>  <alias>  (180) 
C9536-P122

>  <energy_score>  (180) 
-5.519971

>  <HIPPO Compound ID>  (180) 
49748

$$$$
C46023-P304
     RDKit          3D

 19 21  0  0  0  0  0  0  0  0999 V2000
   12.1074   16.3528   21.0954 C   0  0  0  0  0  0  0  0  0  0  0  0
   11.4941   15.0160   21.4627 C   0  0  0  0  0  0  0  0  0  0  0  0
   11.6147   14.7610   22.9669 C   0  0  0  0  0  0  0  0  0  0  0  0
   10.5452   15.5125   23.7536 C   0  0  0  0  0  0  0  0  0  0  0  0
    9.1755   15.2208   23.3027 N   0  0  0  0  0  0  0  0  0  0  0  0
    8.7739   13.8021   23.4347 C   0  0  0  0  0  0  0  0  0  0  0  0
    8.8380   13.2926   24.8621 C   0  0  0  0  0  0  0  0  0  0  0  0
    9.7818   13.4311   25.6361 O   0  0  0  0  0  0  0  0  0  0  0  0
    7.7071   12.4787   25.3200 C   0  0  0  0  0  0  0  0  0  0  0  0
    7.6801   11.1096   25.0101 C   0  0  0  0  0  0  0  0  0  0  0  0
    6.7273   10.2896   25.6155 C   0  0  0  0  0  0  0  0  0  0  0  0
    5.8415   10.8549   26.5204 C   0  0  0  0  0  0  0  0  0  0  0  0
    5.8666   12.2235   26.7906 C   0  0  0  0  0  0  0  0  0  0  0  0
    6.7842   13.0617   26.1891 C   0  0  0  0  0  0  0  0  0  0  0  0
    4.9141   12.5370   27.8949 C   0  0  0  0  0  0  0  0  0  0  0  0
    4.1862   11.1881   28.0468 C   0  0  0  0  0  0  0  0  0  0  0  0
    5.0370   10.1556   27.4444 N   0  0  0  0  0  0  0  0  0  0  0  0
    9.0487   15.6563   21.8977 C   0  0  0  0  0  0  0  0  0  0  0  0
   10.0425   14.9600   20.9655 C   0  0  0  0  0  0  0  0  0  0  0  0
  1  2  1  0
  2  3  1  0
  3  4  1  0
  4  5  1  0
  5  6  1  0
  6  7  1  0
  7  8  2  0
  7  9  1  0
  9 10  2  0
 10 11  1  0
 11 12  2  0
 12 13  1  0
 13 14  2  0
 13 15  1  0
 15 16  1  0
 16 17  1  0
  5 18  1  0
 18 19  1  0
 19  2  1  0
 14  9  1  0
 17 12  1  0
M  END
>  <tags>  (181) 
{'openbind_a71ev2a_c1_knitwork_pure', 'fragmenstein_placed'}

>  <distance_score>  (181) 
0.693927

>  <ref_mols>  (181) 
A4321a,A1778a

>  <smiles>  (181) 
CC1CCN(CC(=O)c2ccc3c(c2)CCN3)CC1

>  <HIPPO Pose ID>  (181) 
203359

>  <inchikey>  (181) 
DLHJBIDRLSJSTJ-UHFFFAOYSA-N

>  <ref_pdb>  (181) 
A0556a

>  <alias>  (181) 
C46023-P304

>  <energy_score>  (181) 
-31.538099

>  <HIPPO Compound ID>  (181) 
52583

$$$$
C46024-P304
     RDKit          3D

 19 21  0  0  0  0  0  0  0  0999 V2000
   10.4004   15.9335   19.4166 C   0  0  0  0  0  0  0  0  0  0  0  0
   10.4876   15.3007   20.8023 C   0  0  1  0  0  0  0  0  0  0  0  0
   11.8004   15.7060   21.4752 C   0  0  0  0  0  0  0  0  0  0  0  0
   11.8550   15.1660   22.8964 C   0  0  0  0  0  0  0  0  0  0  0  0
   10.6240   15.6308   23.6677 C   0  0  0  0  0  0  0  0  0  0  0  0
    9.3510   15.1842   23.0789 N   0  0  0  0  0  0  0  0  0  0  0  0
    9.1203   13.7263   23.1500 C   0  0  0  0  0  0  0  0  0  0  0  0
    9.1788   13.1794   24.5726 C   0  0  0  0  0  0  0  0  0  0  0  0
   10.1490   13.2537   25.3245 O   0  0  0  0  0  0  0  0  0  0  0  0
    8.0251   12.4131   25.0592 C   0  0  0  0  0  0  0  0  0  0  0  0
    7.9983   11.0232   24.8546 C   0  0  0  0  0  0  0  0  0  0  0  0
    6.9874   10.2577   25.4378 C   0  0  0  0  0  0  0  0  0  0  0  0
    6.0699   10.8914   26.2568 C   0  0  0  0  0  0  0  0  0  0  0  0
    6.0862   12.2786   26.4144 C   0  0  0  0  0  0  0  0  0  0  0  0
    7.0549   13.0649   25.8211 C   0  0  0  0  0  0  0  0  0  0  0  0
    4.9451   12.6927   27.2793 C   0  0  0  0  0  0  0  0  0  0  0  0
    4.5447   11.3305   27.8752 C   0  0  0  0  0  0  0  0  0  0  0  0
    4.9935   10.2936   26.9359 N   0  0  0  0  0  0  0  0  0  0  0  0
    9.2714   15.6700   21.6795 C   0  0  0  0  0  0  0  0  0  0  0  0
  2  1  1  6
  2  3  1  0
  3  4  1  0
  4  5  1  0
  5  6  1  0
  6  7  1  0
  7  8  1  0
  8  9  2  0
  8 10  1  0
 10 11  2  0
 11 12  1  0
 12 13  2  0
 13 14  1  0
 14 15  2  0
 14 16  1  0
 16 17  1  0
 17 18  1  0
  6 19  1  0
 19  2  1  0
 15 10  1  0
 18 13  1  0
M  END
>  <tags>  (182) 
{'openbind_a71ev2a_c1_knitwork_pure', 'fragmenstein_placed'}

>  <distance_score>  (182) 
0.717127

>  <ref_mols>  (182) 
A4321a,A1778a

>  <smiles>  (182) 
C[C@H]1CCCN(CC(=O)c2ccc3c(c2)CCN3)C1

>  <HIPPO Pose ID>  (182) 
203360

>  <inchikey>  (182) 
RVENREFGGYUNIA-UHFFFAOYSA-N

>  <ref_pdb>  (182) 
A0556a

>  <alias>  (182) 
C46024-P304

>  <energy_score>  (182) 
-33.579607

>  <HIPPO Compound ID>  (182) 
58943

$$$$
C46025-P304
     RDKit          3D

 19 21  0  0  0  0  0  0  0  0999 V2000
    7.5741   15.6189   21.9434 C   0  0  0  0  0  0  0  0  0  0  0  0
    9.0712   15.8101   22.1855 C   0  0  2  0  0  0  0  0  0  0  0  0
    9.9316   15.4512   20.9630 C   0  0  0  0  0  0  0  0  0  0  0  0
   11.4030   15.7634   21.2288 C   0  0  0  0  0  0  0  0  0  0  0  0
   11.8700   15.1514   22.5425 C   0  0  0  0  0  0  0  0  0  0  0  0
   10.9112   15.4675   23.6893 C   0  0  0  0  0  0  0  0  0  0  0  0
    9.5068   15.1157   23.4137 N   0  0  0  0  0  0  0  0  0  0  0  0
    9.2677   13.6614   23.3881 C   0  0  0  0  0  0  0  0  0  0  0  0
    9.2591   13.1088   24.8043 C   0  0  0  0  0  0  0  0  0  0  0  0
   10.1697   13.2251   25.6208 O   0  0  0  0  0  0  0  0  0  0  0  0
    8.0788   12.3396   25.2156 C   0  0  0  0  0  0  0  0  0  0  0  0
    8.0186   10.9683   24.9218 C   0  0  0  0  0  0  0  0  0  0  0  0
    6.9763   10.2001   25.4406 C   0  0  0  0  0  0  0  0  0  0  0  0
    6.0643   10.8090   26.2846 C   0  0  0  0  0  0  0  0  0  0  0  0
    6.1063   12.1843   26.5183 C   0  0  0  0  0  0  0  0  0  0  0  0
    7.1037   12.9760   25.9862 C   0  0  0  0  0  0  0  0  0  0  0  0
    4.9682   12.5720   27.3995 C   0  0  0  0  0  0  0  0  0  0  0  0
    4.5397   11.1871   27.9211 C   0  0  0  0  0  0  0  0  0  0  0  0
    4.9786   10.1974   26.9314 N   0  0  0  0  0  0  0  0  0  0  0  0
  2  1  1  6
  2  3  1  0
  3  4  1  0
  4  5  1  0
  5  6  1  0
  6  7  1  0
  7  8  1  0
  8  9  1  0
  9 10  2  0
  9 11  1  0
 11 12  2  0
 12 13  1  0
 13 14  2  0
 14 15  1  0
 15 16  2  0
 15 17  1  0
 17 18  1  0
 18 19  1  0
  7  2  1  0
 16 11  1  0
 19 14  1  0
M  END
>  <tags>  (183) 
{'openbind_a71ev2a_c1_knitwork_pure', 'fragmenstein_placed'}

>  <distance_score>  (183) 
0.873929

>  <ref_mols>  (183) 
A4321a,A1778a

>  <smiles>  (183) 
C[C@@H]1CCCCN1CC(=O)c1ccc2c(c1)CCN2

>  <HIPPO Pose ID>  (183) 
203361

>  <inchikey>  (183) 
BVLLTLFJWFLOHJ-UHFFFAOYSA-N

>  <ref_pdb>  (183) 
A0556a

>  <alias>  (183) 
C46025-P304

>  <energy_score>  (183) 
-50.858301

>  <HIPPO Compound ID>  (183) 
46025

$$$$
C45863-P322
     RDKit          3D

 20 22  0  0  0  0  0  0  0  0999 V2000
   25.0761   20.3131   23.8816 O   0  0  0  0  0  0  0  0  0  0  0  0
   25.1233   21.2608   23.2070 C   0  0  0  0  0  0  0  0  0  0  0  0
   24.2058   22.4950   23.1556 N   0  0  0  0  0  0  0  0  0  0  0  0
   22.9700   22.7831   23.8645 C   0  0  2  0  0  0  0  0  0  0  0  0
   21.7882   22.0481   23.2149 C   0  0  0  0  0  0  0  0  0  0  0  0
   20.9973   22.9328   22.2457 C   0  0  0  0  0  0  0  0  0  0  0  0
   21.8632   24.0199   21.6173 C   0  0  0  0  0  0  0  0  0  0  0  0
   22.4594   24.9170   22.6081 N   0  0  0  0  0  0  0  0  0  0  0  0
   22.7070   24.2976   23.9166 C   0  0  0  0  0  0  0  0  0  0  0  0
   26.2151   21.3614   22.2226 C   0  0  0  0  0  0  0  0  0  0  0  0
   26.5725   20.2807   21.4530 C   0  0  0  0  0  0  0  0  0  0  0  0
   27.5528   20.3261   20.5268 N   0  0  0  0  0  0  0  0  0  0  0  0
   28.2012   21.5000   20.3763 C   0  0  0  0  0  0  0  0  0  0  0  0
   29.2522   21.5827   19.2774 C   0  0  2  0  0  0  0  0  0  0  0  0
   30.4140   20.6341   19.5227 C   0  0  0  0  0  0  0  0  0  0  0  0
   31.4903   21.2043   18.6294 C   0  0  0  0  0  0  0  0  0  0  0  0
   31.3216   22.6947   18.8433 C   0  0  0  0  0  0  0  0  0  0  0  0
   29.8909   22.9185   19.0881 N   0  0  0  0  0  0  0  0  0  0  0  0
   27.9577   22.6014   21.1282 N   0  0  0  0  0  0  0  0  0  0  0  0
   26.9659   22.4992   22.0392 C   0  0  0  0  0  0  0  0  0  0  0  0
  1  2  2  0
  2  3  1  0
  4  3  1  6
  4  5  1  0
  5  6  1  0
  6  7  1  0
  7  8  1  0
  8  9  1  0
  2 10  1  0
 10 11  2  0
 11 12  1  0
 12 13  2  0
 14 13  1  1
 14 15  1  0
 15 16  1  0
 16 17  1  0
 17 18  1  0
 13 19  1  0
 19 20  2  0
  9  4  1  0
 20 10  1  0
 18 14  1  0
M  END
>  <tags>  (184) 
{'openbind_a71ev2a_c1_knitwork_pure', 'fragmenstein_placed'}

>  <distance_score>  (184) 
0.720692

>  <ref_mols>  (184) 
A4351a,A1146a

>  <smiles>  (184) 
O=C(N[C@@H]1CCCNC1)c1cnc([C@@H]2CCCN2)nc1

>  <HIPPO Pose ID>  (184) 
203390

>  <inchikey>  (184) 
GMCQQOLNFQNWLY-UHFFFAOYSA-N

>  <ref_pdb>  (184) 
A0556a

>  <alias>  (184) 
C45863-P322

>  <energy_score>  (184) 
-5.987918

>  <HIPPO Compound ID>  (184) 
55754

$$$$
C47239-P196
     RDKit          3D

 19 21  0  0  0  0  0  0  0  0999 V2000
   -3.9818    4.1119    2.3583 O   0  0  0  0  0  0  0  0  0  0  0  0
   -3.4557    4.5858    3.3486 C   0  0  0  0  0  0  0  0  0  0  0  0
   -2.2518    5.2728    3.3357 N   0  0  0  0  0  0  0  0  0  0  0  0
   -1.7974    5.5354    4.6786 C   0  0  1  0  0  0  0  0  0  0  0  0
   -1.1199    6.8652    4.8665 C   0  0  0  0  0  0  0  0  0  0  0  0
   -1.2305    7.9156    3.9452 C   0  0  0  0  0  0  0  0  0  0  0  0
   -0.5796    9.1298    4.1755 C   0  0  0  0  0  0  0  0  0  0  0  0
    0.1780    9.3160    5.3311 C   0  0  0  0  0  0  0  0  0  0  0  0
    0.2816    8.2900    6.2655 C   0  0  0  0  0  0  0  0  0  0  0  0
   -0.3650    7.0809    6.0251 C   0  0  0  0  0  0  0  0  0  0  0  0
   -0.2250    6.0827    6.9122 F   0  0  0  0  0  0  0  0  0  0  0  0
   -3.0811    5.3850    5.5033 C   0  0  0  0  0  0  0  0  0  0  0  0
   -3.9203    4.5572    4.6608 N   0  0  0  0  0  0  0  0  0  0  0  0
   -5.2700    4.1632    5.0634 C   0  0  1  0  0  0  0  0  0  0  0  0
   -6.3407    5.1419    4.5426 C   0  0  0  0  0  0  0  0  0  0  0  0
   -7.2758    4.4768    3.5378 C   0  0  0  0  0  0  0  0  0  0  0  0
   -7.8961    3.1925    4.0993 C   0  0  0  0  0  0  0  0  0  0  0  0
   -7.0037    2.3908    4.9437 N   0  0  0  0  0  0  0  0  0  0  0  0
   -5.5933    2.6965    4.6897 C   0  0  0  0  0  0  0  0  0  0  0  0
  1  2  2  0
  2  3  1  0
  3  4  1  0
  4  5  1  6
  5  6  2  0
  6  7  1  0
  7  8  2  0
  8  9  1  0
  9 10  2  0
 10 11  1  0
  4 12  1  0
 12 13  1  0
 14 13  1  6
 14 15  1  0
 15 16  1  0
 16 17  1  0
 17 18  1  0
 18 19  1  0
 13  2  1  0
 19 14  1  0
 10  5  1  0
M  END
>  <tags>  (185) 
{'openbind_a71ev2a_c1_knitwork_pure', 'fragmenstein_placed'}

>  <distance_score>  (185) 
0.454619

>  <ref_mols>  (185) 
A3616a,A1081b

>  <smiles>  (185) 
O=C1N[C@@H](c2ccccc2F)CN1[C@H]1CCCNC1

>  <HIPPO Pose ID>  (185) 
204196

>  <inchikey>  (185) 
HWMWQVREGFTJLC-UHFFFAOYSA-N

>  <ref_pdb>  (185) 
A0556a

>  <alias>  (185) 
C47239-P196

>  <energy_score>  (185) 
-36.997486

>  <HIPPO Compound ID>  (185) 
56319

$$$$
C124407-P214
     RDKit          3D

 12 13  0  0  0  0  0  0  0  0999 V2000
    6.8905   13.3970   25.4236 Cl  0  0  0  0  0  0  0  0  0  0  0  0
    7.5772   11.9844   24.8010 C   0  0  0  0  0  0  0  0  0  0  0  0
    7.1430   10.6864   25.1018 C   0  0  0  0  0  0  0  0  0  0  0  0
    7.8843    9.7569   24.5026 N   0  0  0  0  0  0  0  0  0  0  0  0
    8.7726   10.4682   23.7782 N   0  0  0  0  0  0  0  0  0  0  0  0
    8.6393   11.8319   23.9325 C   0  0  0  0  0  0  0  0  0  0  0  0
    9.5406   12.8137   23.2426 C   0  0  2  0  0  0  0  0  0  0  0  0
   10.6555   13.3082   24.1775 C   0  0  0  0  0  0  0  0  0  0  0  0
   11.5288   14.3711   23.5214 C   0  0  0  0  0  0  0  0  0  0  0  0
   10.6632   15.4963   22.9776 C   0  0  0  0  0  0  0  0  0  0  0  0
    9.5656   14.9432   22.0738 C   0  0  0  0  0  0  0  0  0  0  0  0
    8.7472   13.9506   22.7693 N   0  0  0  0  0  0  0  0  0  0  0  0
  1  2  1  0
  2  3  1  0
  3  4  2  0
  4  5  1  0
  5  6  1  0
  7  6  1  1
  7  8  1  0
  8  9  1  0
  9 10  1  0
 10 11  1  0
 11 12  1  0
  6  2  2  0
 12  7  1  0
M  END
>  <tags>  (186) 
{'openbind_a71ev2a_c1_knitwork_pure', 'fragmenstein_placed'}

>  <distance_score>  (186) 
0.832893

>  <ref_mols>  (186) 
A0556a,A3550a

>  <smiles>  (186) 
Clc1cn[nH]c1[C@@H]1CCCCN1

>  <HIPPO Pose ID>  (186) 
204473

>  <inchikey>  (186) 
MDKJRJCQKQXIAA-UHFFFAOYSA-N

>  <ref_pdb>  (186) 
A0556a

>  <alias>  (186) 
C124407-P214

>  <energy_score>  (186) 
-33.497524

>  <HIPPO Compound ID>  (186) 
49767

$$$$
C124416-P214
     RDKit          3D

 13 14  0  0  0  0  0  0  0  0999 V2000
    9.5031    9.4446   23.2124 C   0  0  0  0  0  0  0  0  0  0  0  0
    8.5854   10.2851   23.9493 N   0  0  0  0  0  0  0  0  0  0  0  0
    7.6681    9.6700   24.7319 N   0  0  0  0  0  0  0  0  0  0  0  0
    6.9662   10.6704   25.2571 C   0  0  0  0  0  0  0  0  0  0  0  0
    7.4700   11.9185   24.8772 C   0  0  0  0  0  0  0  0  0  0  0  0
    6.8627   13.4058   25.4069 Cl  0  0  0  0  0  0  0  0  0  0  0  0
    8.5227   11.6654   24.0149 C   0  0  0  0  0  0  0  0  0  0  0  0
    9.4208   12.6196   23.2676 C   0  0  2  0  0  0  0  0  0  0  0  0
   10.4792   13.2554   24.1857 C   0  0  0  0  0  0  0  0  0  0  0  0
   11.3013   14.3275   23.4798 C   0  0  0  0  0  0  0  0  0  0  0  0
   10.3825   15.3444   22.8247 C   0  0  0  0  0  0  0  0  0  0  0  0
    9.3745   14.6450   21.9172 C   0  0  0  0  0  0  0  0  0  0  0  0
    8.5765   13.6465   22.6374 N   0  0  0  0  0  0  0  0  0  0  0  0
  1  2  1  0
  2  3  1  0
  3  4  2  0
  4  5  1  0
  5  6  1  0
  5  7  2  0
  8  7  1  1
  8  9  1  0
  9 10  1  0
 10 11  1  0
 11 12  1  0
 12 13  1  0
  7  2  1  0
 13  8  1  0
M  END
>  <tags>  (187) 
{'openbind_a71ev2a_c1_knitwork_pure', 'fragmenstein_placed'}

>  <distance_score>  (187) 
0.886264

>  <ref_mols>  (187) 
A0556a,A3550a

>  <smiles>  (187) 
Cn1ncc(Cl)c1[C@@H]1CCCCN1

>  <HIPPO Pose ID>  (187) 
204475

>  <inchikey>  (187) 
IYBHUXYKLJVDAB-UHFFFAOYSA-N

>  <ref_pdb>  (187) 
A0556a

>  <alias>  (187) 
C124416-P214

>  <energy_score>  (187) 
-27.295156

>  <HIPPO Compound ID>  (187) 
54984

$$$$
C47045-P198
     RDKit          3D

 22 24  0  0  0  0  0  0  0  0999 V2000
    3.4521   10.5682   27.8586 C   0  0  0  0  0  0  0  0  0  0  0  0
    4.2131   11.8776   27.6838 C   0  0  2  0  0  0  0  0  0  0  0  0
    3.2905   13.0025   27.6848 N   0  0  0  0  0  0  0  0  0  0  0  0
    1.9352   13.1912   26.9524 C   0  0  0  0  0  0  0  0  0  0  0  0
    1.3346   12.4618   26.3169 O   0  0  0  0  0  0  0  0  0  0  0  0
    1.6133   14.6457   27.3814 N   0  0  0  0  0  0  0  0  0  0  0  0
    0.4283   15.4386   27.1748 C   0  0  0  0  0  0  0  0  0  0  0  0
   -0.5782   15.3038   28.3251 C   0  0  2  0  0  0  0  0  0  0  0  0
   -1.1574   13.8829   28.4260 C   0  0  0  0  0  0  0  0  0  0  0  0
   -2.2577   13.8182   29.4822 C   0  0  0  0  0  0  0  0  0  0  0  0
   -3.3131   14.8964   29.2553 C   0  0  0  0  0  0  0  0  0  0  0  0
   -2.7097   16.2272   29.2070 N   0  0  0  0  0  0  0  0  0  0  0  0
   -1.7131   16.3244   28.1395 C   0  0  0  0  0  0  0  0  0  0  0  0
    5.2274   11.9251   26.5387 C   0  0  0  0  0  0  0  0  0  0  0  0
    5.6489   13.1613   26.0230 C   0  0  0  0  0  0  0  0  0  0  0  0
    6.6796   13.2624   25.0797 C   0  0  0  0  0  0  0  0  0  0  0  0
    7.3444   12.1073   24.6449 C   0  0  0  0  0  0  0  0  0  0  0  0
    8.4159   12.0794   23.7656 N   0  0  0  0  0  0  0  0  0  0  0  0
    8.8085   10.8370   23.6041 C   0  0  0  0  0  0  0  0  0  0  0  0
    7.9093    9.6553   24.4395 S   0  0  0  0  0  0  0  0  0  0  0  0
    6.9223   10.8743   25.1394 C   0  0  0  0  0  0  0  0  0  0  0  0
    5.8626   10.7575   26.0647 C   0  0  0  0  0  0  0  0  0  0  0  0
  2  1  1  6
  2  3  1  0
  3  4  1  0
  4  5  2  0
  4  6  1  0
  6  7  1  0
  8  7  1  6
  8  9  1  0
  9 10  1  0
 10 11  1  0
 11 12  1  0
 12 13  1  0
  2 14  1  0
 14 15  2  0
 15 16  1  0
 16 17  2  0
 17 18  1  0
 18 19  2  0
 19 20  1  0
 20 21  1  0
 21 22  2  0
 13  8  1  0
 22 14  1  0
 21 17  1  0
M  END
>  <tags>  (188) 
{'openbind_a71ev2a_c1_knitwork_pure', 'fragmenstein_placed'}

>  <distance_score>  (188) 
0.885342

>  <ref_mols>  (188) 
A0514b,A3618a

>  <smiles>  (188) 
C[C@H](NC(=O)NC[C@@H]1CCCNC1)c1ccc2ncsc2c1

>  <HIPPO Pose ID>  (188) 
204972

>  <inchikey>  (188) 
YCRGSBIGVVKPPN-UHFFFAOYSA-N

>  <ref_pdb>  (188) 
A4586a

>  <alias>  (188) 
C47045-P198

>  <energy_score>  (188) 
-32.387221

>  <HIPPO Compound ID>  (188) 
47045

$$$$
C12359-P152
     RDKit          3D

 13 13  0  0  0  0  0  0  0  0999 V2000
    6.8882   15.1644   26.6768 C   0  0  0  0  0  0  0  0  0  0  0  0
    7.6963   15.0540   25.3980 C   0  0  0  0  0  0  0  0  0  0  0  0
    6.8264   14.6060   24.2291 C   0  0  0  0  0  0  0  0  0  0  0  0
    7.7898   14.1032   22.8069 S   0  0  0  0  0  0  0  0  0  0  0  0
    8.4374   15.2764   22.2622 O   0  0  0  0  0  0  0  0  0  0  0  0
    7.0197   13.2279   21.9496 O   0  0  0  0  0  0  0  0  0  0  0  0
    9.0448   13.2171   23.5031 N   0  0  0  0  0  0  0  0  0  0  0  0
    8.8784   11.8367   23.8318 C   0  0  0  0  0  0  0  0  0  0  0  0
    9.6724   10.9148   23.1707 C   0  0  0  0  0  0  0  0  0  0  0  0
    9.6111    9.5672   23.4975 C   0  0  0  0  0  0  0  0  0  0  0  0
    8.7472    9.1926   24.5025 C   0  0  0  0  0  0  0  0  0  0  0  0
    7.9466   10.0460   25.1766 N   0  0  0  0  0  0  0  0  0  0  0  0
    8.0219   11.3505   24.8116 C   0  0  0  0  0  0  0  0  0  0  0  0
  1  2  1  0
  2  3  1  0
  3  4  1  0
  4  5  2  0
  4  6  2  0
  4  7  1  0
  7  8  1  0
  8  9  2  0
  9 10  1  0
 10 11  2  0
 11 12  1  0
 12 13  2  0
 13  8  1  0
M  END
>  <tags>  (189) 
{'openbind_a71ev2a_c1_knitwork_pure', 'fragmenstein_placed'}

>  <distance_score>  (189) 
0.932163

>  <ref_mols>  (189) 
A3201a,A0719a

>  <smiles>  (189) 
CCCS(=O)(=O)Nc1cccnc1

>  <HIPPO Pose ID>  (189) 
207503

>  <inchikey>  (189) 
GTAWTVGQTNAEFZ-UHFFFAOYSA-N

>  <ref_pdb>  (189) 
A4586a

>  <alias>  (189) 
C12359-P152

>  <energy_score>  (189) 
-27.483654

>  <HIPPO Compound ID>  (189) 
50555

$$$$
C39959-P100
     RDKit          3D

 23 24  0  0  0  0  0  0  0  0999 V2000
   -0.0869   12.1260    1.5759 C   0  0  0  0  0  0  0  0  0  0  0  0
    0.4169   10.6909    1.6699 C   0  0  1  0  0  0  0  0  0  0  0  0
    1.9247   10.5602    1.4115 C   0  0  0  0  0  0  0  0  0  0  0  0
    2.7890   11.3136    2.4166 C   0  0  0  0  0  0  0  0  0  0  0  0
    4.1906   11.0605    2.2207 N   0  0  0  0  0  0  0  0  0  0  0  0
    5.4322   11.6503    2.9440 C   0  0  0  0  0  0  0  0  0  0  0  0
    5.5084   12.4865    3.7541 O   0  0  0  0  0  0  0  0  0  0  0  0
    6.6302   10.9175    2.3273 C   0  0  0  0  0  0  0  0  0  0  0  0
    7.9833   11.3279    2.9019 C   0  0  0  0  0  0  0  0  0  0  0  0
    8.4050   12.6937    2.4734 C   0  0  0  0  0  0  0  0  0  0  0  0
    8.1455   13.9312    3.0222 C   0  0  0  0  0  0  0  0  0  0  0  0
    8.8546   14.8384    2.2222 C   0  0  0  0  0  0  0  0  0  0  0  0
    9.5440   14.2289    1.2547 N   0  0  0  0  0  0  0  0  0  0  0  0
    9.2155   12.9319    1.3980 N   0  0  0  0  0  0  0  0  0  0  0  0
    0.0709   10.1055    2.9464 N   0  0  0  0  0  0  0  0  0  0  0  0
   -0.1042    8.6147    3.3602 C   0  0  0  0  0  0  0  0  0  0  0  0
    0.0798    7.6337    2.7520 O   0  0  0  0  0  0  0  0  0  0  0  0
   -0.5380    8.6168    4.8406 C   0  0  2  0  0  0  0  0  0  0  0  0
    0.5999    9.0826    5.7448 C   0  0  0  0  0  0  0  0  0  0  0  0
    0.6681    8.0861    6.7805 N   0  0  0  0  0  0  0  0  0  0  0  0
   -0.0585    6.9704    6.4170 C   0  0  0  0  0  0  0  0  0  0  0  0
    0.0296    5.8690    6.9343 O   0  0  0  0  0  0  0  0  0  0  0  0
   -0.8526    7.2944    5.3397 N   0  0  0  0  0  0  0  0  0  0  0  0
  2  1  1  1
  2  3  1  0
  3  4  1  0
  4  5  1  0
  5  6  1  0
  6  7  2  0
  6  8  1  0
  8  9  1  0
  9 10  1  0
 10 11  2  0
 11 12  1  0
 12 13  2  0
 13 14  1  0
  2 15  1  0
 15 16  1  0
 16 17  2  0
 18 16  1  6
 18 19  1  0
 19 20  1  0
 20 21  1  0
 21 22  2  0
 21 23  1  0
 14 10  1  0
 23 18  1  0
M  END
>  <tags>  (190) 
{'openbind_a71ev2a_c1_knitwork_pure', 'fragmenstein_placed'}

>  <distance_score>  (190) 
0.696167

>  <ref_mols>  (190) 
A1081b,A0717a

>  <smiles>  (190) 
C[C@@H](CCNC(=O)CCc1ccn[nH]1)NC(=O)[C@@H]1CNC(=O)N1

>  <HIPPO Pose ID>  (190) 
207613

>  <inchikey>  (190) 
LHYZZOLVXFMPSN-UHFFFAOYSA-N

>  <ref_pdb>  (190) 
A4586a

>  <alias>  (190) 
C39959-P100

>  <energy_score>  (190) 
-5.698781

>  <HIPPO Compound ID>  (190) 
57585

$$$$
C124666-P76
     RDKit          3D

 22 23  0  0  0  0  0  0  0  0999 V2000
    2.7051   11.7097    1.2629 C   0  0  0  0  0  0  0  0  0  0  0  0
    3.6819   10.5415    1.1878 C   0  0  2  0  0  0  0  0  0  0  0  0
    3.0320    9.1669    1.4243 C   0  0  0  0  0  0  0  0  0  0  0  0
    2.0244    9.0933    2.4609 N   0  0  0  0  0  0  0  0  0  0  0  0
    1.0458    7.9411    2.8402 C   0  0  0  0  0  0  0  0  0  0  0  0
    0.8544    6.9099    2.3238 O   0  0  0  0  0  0  0  0  0  0  0  0
    0.1776    8.4099    4.0629 C   0  0  2  0  0  0  0  0  0  0  0  0
    1.0318    8.9606    5.2023 C   0  0  0  0  0  0  0  0  0  0  0  0
    0.8084    8.0729    6.3095 N   0  0  0  0  0  0  0  0  0  0  0  0
   -0.0706    7.0668    5.9834 C   0  0  0  0  0  0  0  0  0  0  0  0
   -0.2575    6.0892    6.6896 O   0  0  0  0  0  0  0  0  0  0  0  0
   -0.6104    7.3658    4.7398 N   0  0  0  0  0  0  0  0  0  0  0  0
   -1.4821    6.4544    4.0364 C   0  0  0  0  0  0  0  0  0  0  0  0
    4.8417   10.7933    2.0248 N   0  0  0  0  0  0  0  0  0  0  0  0
    6.3540   10.8573    1.6628 C   0  0  0  0  0  0  0  0  0  0  0  0
    6.8881   10.7934    0.6231 O   0  0  0  0  0  0  0  0  0  0  0  0
    7.1556   11.1471    2.9448 C   0  0  0  0  0  0  0  0  0  0  0  0
    7.8472   12.4703    2.8177 C   0  0  0  0  0  0  0  0  0  0  0  0
    7.8585   13.5786    3.6357 C   0  0  0  0  0  0  0  0  0  0  0  0
    8.6584   14.5178    2.9621 C   0  0  0  0  0  0  0  0  0  0  0  0
    9.1599   14.0388    1.8222 N   0  0  0  0  0  0  0  0  0  0  0  0
    8.6476   12.7937    1.7486 N   0  0  0  0  0  0  0  0  0  0  0  0
  2  1  1  1
  2  3  1  0
  3  4  1  0
  4  5  1  0
  5  6  2  0
  7  5  1  6
  7  8  1  0
  8  9  1  0
  9 10  1  0
 10 11  2  0
 10 12  1  0
 12 13  1  0
  2 14  1  0
 14 15  1  0
 15 16  2  0
 15 17  1  0
 17 18  1  0
 18 19  2  0
 19 20  1  0
 20 21  2  0
 21 22  1  0
 12  7  1  0
 22 18  1  0
M  END
>  <tags>  (191) 
{'openbind_a71ev2a_c1_knitwork_pure', 'fragmenstein_placed'}

>  <distance_score>  (191) 
0.683962

>  <ref_mols>  (191) 
A1081b,A0717a

>  <smiles>  (191) 
C[C@H](CNC(=O)[C@@H]1CNC(=O)N1C)NC(=O)Cc1ccn[nH]1

>  <HIPPO Pose ID>  (191) 
207620

>  <inchikey>  (191) 
YPQHHFKDRTWIRH-UHFFFAOYSA-N

>  <ref_pdb>  (191) 
A4586a

>  <alias>  (191) 
C124666-P76

>  <energy_score>  (191) 
-4.034276

>  <HIPPO Compound ID>  (191) 
124666

$$$$
C124672-P100
     RDKit          3D

 22 24  0  0  0  0  0  0  0  0999 V2000
    2.9149   10.9592    1.6716 C   0  0  0  0  0  0  0  0  0  0  0  0
    3.7095   10.3115    2.8110 C   0  0  1  0  0  0  0  0  0  0  0  0
    3.3387    8.8331    3.0166 C   0  0  0  0  0  0  0  0  0  0  0  0
    2.0669    8.6922    3.7122 N   0  0  0  0  0  0  0  0  0  0  0  0
    0.6111    8.7626    3.1760 C   0  0  0  0  0  0  0  0  0  0  0  0
    0.2087    9.0206    2.1092 O   0  0  0  0  0  0  0  0  0  0  0  0
   -0.3741    8.5112    4.3487 C   0  0  2  0  0  0  0  0  0  0  0  0
   -0.0556    9.3317    5.5998 C   0  0  0  0  0  0  0  0  0  0  0  0
    0.3700    8.3363    6.5569 N   0  0  0  0  0  0  0  0  0  0  0  0
    0.0376    7.0645    6.1406 C   0  0  0  0  0  0  0  0  0  0  0  0
    0.1218    6.0437    6.8012 O   0  0  0  0  0  0  0  0  0  0  0  0
   -0.3727    7.1466    4.8301 N   0  0  0  0  0  0  0  0  0  0  0  0
    5.1344   10.5347    2.5975 N   0  0  0  0  0  0  0  0  0  0  0  0
    5.8416   11.6147    3.0472 C   0  0  0  0  0  0  0  0  0  0  0  0
    6.9865   11.5962    2.2922 C   0  0  0  0  0  0  0  0  0  0  0  0
    8.0093   12.7395    2.2424 C   0  0  0  0  0  0  0  0  0  0  0  0
    7.9799   13.9253    2.9367 C   0  0  0  0  0  0  0  0  0  0  0  0
    9.0453   14.6694    2.4030 C   0  0  0  0  0  0  0  0  0  0  0  0
    9.7505   13.9819    1.5000 N   0  0  0  0  0  0  0  0  0  0  0  0
    9.0930   12.8018    1.4192 N   0  0  0  0  0  0  0  0  0  0  0  0
    6.9955   10.4833    1.5000 N   0  0  0  0  0  0  0  0  0  0  0  0
    5.8441    9.8388    1.6858 N   0  0  0  0  0  0  0  0  0  0  0  0
  2  1  1  6
  2  3  1  0
  3  4  1  0
  4  5  1  0
  5  6  2  0
  7  5  1  6
  7  8  1  0
  8  9  1  0
  9 10  1  0
 10 11  2  0
 10 12  1  0
  2 13  1  0
 13 14  1  0
 14 15  2  0
 15 16  1  0
 16 17  2  0
 17 18  1  0
 18 19  2  0
 19 20  1  0
 15 21  1  0
 21 22  2  0
 12  7  1  0
 22 13  1  0
 20 16  1  0
M  END
>  <tags>  (192) 
{'openbind_a71ev2a_c1_knitwork_pure', 'fragmenstein_placed'}

>  <distance_score>  (192) 
0.803698

>  <ref_mols>  (192) 
A1081b,A0717a

>  <smiles>  (192) 
C[C@@H](CNC(=O)[C@@H]1CNC(=O)N1)n1cc(-c2ccn[nH]2)nn1

>  <HIPPO Pose ID>  (192) 
207629

>  <inchikey>  (192) 
SPNZKICKJJLOLD-UHFFFAOYSA-N

>  <ref_pdb>  (192) 
A4586a

>  <alias>  (192) 
C124672-P100

>  <energy_score>  (192) 
-24.302095

>  <HIPPO Compound ID>  (192) 
45922

$$$$
C124674-P100
     RDKit          3D

 24 26  0  0  0  0  0  0  0  0999 V2000
    2.3432    6.4631    0.5435 O   0  0  0  0  0  0  0  0  0  0  0  0
    2.3771    7.0410    1.5235 C   0  0  0  0  0  0  0  0  0  0  0  0
    1.2259    7.4924    2.4609 N   0  0  0  0  0  0  0  0  0  0  0  0
   -0.1980    7.2213    2.3976 C   0  0  0  0  0  0  0  0  0  0  0  0
   -0.8267    6.8048    3.7380 C   0  0  0  0  0  0  0  0  0  0  0  0
   -0.4169    7.6540    4.8420 N   0  0  0  0  0  0  0  0  0  0  0  0
   -0.5620    9.0919    4.8338 C   0  0  0  0  0  0  0  0  0  0  0  0
    0.3877    9.4961    5.9438 C   0  0  0  0  0  0  0  0  0  0  0  0
    0.4077    8.3441    6.8087 N   0  0  0  0  0  0  0  0  0  0  0  0
    0.0206    7.2162    6.0907 C   0  0  0  0  0  0  0  0  0  0  0  0
    0.1223    6.0713    6.5009 O   0  0  0  0  0  0  0  0  0  0  0  0
    3.5857    7.6412    2.2927 N   0  0  0  0  0  0  0  0  0  0  0  0
    4.9997    7.5493    2.0270 C   0  0  0  0  0  0  0  0  0  0  0  0
    5.7440    8.8556    2.1446 C   0  0  0  0  0  0  0  0  0  0  0  0
    7.0419    8.8841    2.6844 C   0  0  0  0  0  0  0  0  0  0  0  0
    7.7779   10.0766    2.7450 C   0  0  0  0  0  0  0  0  0  0  0  0
    7.2300   11.2629    2.2560 C   0  0  0  0  0  0  0  0  0  0  0  0
    7.9601   12.5194    2.3114 C   0  0  0  0  0  0  0  0  0  0  0  0
    7.7020   13.6844    3.0032 C   0  0  0  0  0  0  0  0  0  0  0  0
    8.6950   14.5873    2.5880 C   0  0  0  0  0  0  0  0  0  0  0  0
    9.5507   14.0414    1.7199 N   0  0  0  0  0  0  0  0  0  0  0  0
    9.0654   12.7922    1.5486 N   0  0  0  0  0  0  0  0  0  0  0  0
    5.9388   11.2402    1.7119 C   0  0  0  0  0  0  0  0  0  0  0  0
    5.2080   10.0487    1.6461 C   0  0  0  0  0  0  0  0  0  0  0  0
  1  2  2  0
  2  3  1  0
  3  4  1  0
  4  5  1  0
  5  6  1  0
  6  7  1  0
  7  8  1  0
  8  9  1  0
  9 10  1  0
 10 11  2  0
  2 12  1  0
 12 13  1  0
 13 14  1  0
 14 15  2  0
 15 16  1  0
 16 17  2  0
 17 18  1  0
 18 19  2  0
 19 20  1  0
 20 21  2  0
 21 22  1  0
 17 23  1  0
 23 24  2  0
 10  6  1  0
 24 14  1  0
 22 18  1  0
M  END
>  <tags>  (193) 
{'openbind_a71ev2a_c1_knitwork_pure', 'fragmenstein_placed'}

>  <distance_score>  (193) 
0.727947

>  <ref_mols>  (193) 
A1081b,A0717a

>  <smiles>  (193) 
O=C(NCCN1CCNC1=O)NCc1ccc(-c2ccn[nH]2)cc1

>  <HIPPO Pose ID>  (193) 
207633

>  <inchikey>  (193) 
ARLQJSHPRHVDLE-UHFFFAOYSA-N

>  <ref_pdb>  (193) 
A4586a

>  <alias>  (193) 
C124674-P100

>  <energy_score>  (193) 
-0.279743

>  <HIPPO Compound ID>  (193) 
124674

$$$$
C124675-P76
     RDKit          3D

 21 23  0  0  0  0  0  0  0  0999 V2000
    0.0739    6.5530    6.4691 O   0  0  0  0  0  0  0  0  0  0  0  0
    0.1514    7.4713    5.6688 C   0  0  0  0  0  0  0  0  0  0  0  0
    0.3120    8.8080    5.9711 N   0  0  0  0  0  0  0  0  0  0  0  0
    0.6081    9.5833    4.7874 C   0  0  0  0  0  0  0  0  0  0  0  0
    0.2735    8.6402    3.6400 C   0  0  1  0  0  0  0  0  0  0  0  0
    1.2740    8.7078    2.4517 C   0  0  0  0  0  0  0  0  0  0  0  0
    0.8987    9.0265    1.3909 O   0  0  0  0  0  0  0  0  0  0  0  0
    2.6937    8.3089    2.9386 N   0  0  0  0  0  0  0  0  0  0  0  0
    3.9228    8.1286    2.2000 C   0  0  0  0  0  0  0  0  0  0  0  0
    4.9108    9.2677    2.2940 C   0  0  0  0  0  0  0  0  0  0  0  0
    4.5059   10.6028    2.2058 C   0  0  0  0  0  0  0  0  0  0  0  0
    5.4487   11.6400    2.2485 C   0  0  0  0  0  0  0  0  0  0  0  0
    6.8244   11.3773    2.3555 C   0  0  0  0  0  0  0  0  0  0  0  0
    7.7647   12.4960    2.3901 C   0  0  0  0  0  0  0  0  0  0  0  0
    7.7062   13.6977    3.0699 C   0  0  0  0  0  0  0  0  0  0  0  0
    8.8083   14.4397    2.6171 C   0  0  0  0  0  0  0  0  0  0  0  0
    9.5463   13.7653    1.7337 N   0  0  0  0  0  0  0  0  0  0  0  0
    8.9033   12.5820    1.6277 N   0  0  0  0  0  0  0  0  0  0  0  0
    7.2366   10.0455    2.4210 C   0  0  0  0  0  0  0  0  0  0  0  0
    6.2904    9.0050    2.3884 C   0  0  0  0  0  0  0  0  0  0  0  0
    0.1632    7.3496    4.2931 N   0  0  0  0  0  0  0  0  0  0  0  0
  1  2  2  0
  2  3  1  0
  3  4  1  0
  4  5  1  0
  5  6  1  6
  6  7  2  0
  6  8  1  0
  8  9  1  0
  9 10  1  0
 10 11  2  0
 11 12  1  0
 12 13  2  0
 13 14  1  0
 14 15  2  0
 15 16  1  0
 16 17  2  0
 17 18  1  0
 13 19  1  0
 19 20  2  0
  5 21  1  0
 21  2  1  0
 20 10  1  0
 18 14  1  0
M  END
>  <tags>  (194) 
{'openbind_a71ev2a_c1_knitwork_pure', 'fragmenstein_placed'}

>  <distance_score>  (194) 
0.948377

>  <ref_mols>  (194) 
A1081b,A0717a

>  <smiles>  (194) 
O=C1NC[C@@H](C(=O)NCc2ccc(-c3ccn[nH]3)cc2)N1

>  <HIPPO Pose ID>  (194) 
207636

>  <inchikey>  (194) 
YPSWQHNOQUDWBB-UHFFFAOYSA-N

>  <ref_pdb>  (194) 
A4586a

>  <alias>  (194) 
C124675-P76

>  <energy_score>  (194) 
-13.124392

>  <HIPPO Compound ID>  (194) 
124752

$$$$
C124677-P100
     RDKit          3D

 24 25  0  0  0  0  0  0  0  0999 V2000
    0.5346   14.3191    2.7456 C   0  0  0  0  0  0  0  0  0  0  0  0
    1.4538   13.1217    2.9973 C   0  0  2  0  0  0  0  0  0  0  0  0
    2.8531   13.5729    3.4567 C   0  0  0  0  0  0  0  0  0  0  0  0
    3.6841   14.3520    2.4440 C   0  0  0  0  0  0  0  0  0  0  0  0
    5.0157   14.5588    2.9613 N   0  0  0  0  0  0  0  0  0  0  0  0
    5.9740   15.7721    2.8217 C   0  0  0  0  0  0  0  0  0  0  0  0
    5.8030   16.8189    2.3329 O   0  0  0  0  0  0  0  0  0  0  0  0
    7.2834   15.3962    3.5281 C   0  0  0  0  0  0  0  0  0  0  0  0
    7.9754   14.2987    2.7993 C   0  0  0  0  0  0  0  0  0  0  0  0
    8.0813   12.9502    3.0636 C   0  0  0  0  0  0  0  0  0  0  0  0
    8.8087   12.4288    1.9800 C   0  0  0  0  0  0  0  0  0  0  0  0
    9.1846   13.3774    1.1204 N   0  0  0  0  0  0  0  0  0  0  0  0
    8.6465   14.5005    1.6222 N   0  0  0  0  0  0  0  0  0  0  0  0
    1.5173   12.1967    1.7642 C   0  0  0  0  0  0  0  0  0  0  0  0
    0.3440   11.2165    1.6905 C   0  0  0  0  0  0  0  0  0  0  0  0
    0.4948   10.1352    2.6349 N   0  0  0  0  0  0  0  0  0  0  0  0
   -0.5796    9.2945    3.3911 C   0  0  0  0  0  0  0  0  0  0  0  0
   -1.7453    9.3010    3.3035 O   0  0  0  0  0  0  0  0  0  0  0  0
    0.1990    8.3281    4.3094 C   0  0  1  0  0  0  0  0  0  0  0  0
    0.9273    9.0586    5.4310 C   0  0  0  0  0  0  0  0  0  0  0  0
    0.8613    8.1389    6.5374 N   0  0  0  0  0  0  0  0  0  0  0  0
    0.0172    7.0832    6.2525 C   0  0  0  0  0  0  0  0  0  0  0  0
   -0.1089    6.0721    6.9233 O   0  0  0  0  0  0  0  0  0  0  0  0
   -0.5694    7.3275    5.0237 N   0  0  0  0  0  0  0  0  0  0  0  0
  2  1  1  6
  2  3  1  0
  3  4  1  0
  4  5  1  0
  5  6  1  0
  6  7  2  0
  6  8  1  0
  8  9  1  0
  9 10  2  0
 10 11  1  0
 11 12  2  0
 12 13  1  0
  2 14  1  0
 14 15  1  0
 15 16  1  0
 16 17  1  0
 17 18  2  0
 19 17  1  1
 19 20  1  0
 20 21  1  0
 21 22  1  0
 22 23  2  0
 22 24  1  0
 13  9  1  0
 24 19  1  0
M  END
>  <tags>  (195) 
{'openbind_a71ev2a_c1_knitwork_pure', 'fragmenstein_placed'}

>  <distance_score>  (195) 
0.978584

>  <ref_mols>  (195) 
A1081b,A0717a

>  <smiles>  (195) 
C[C@H](CCNC(=O)Cc1ccn[nH]1)CCNC(=O)[C@H]1CNC(=O)N1

>  <HIPPO Pose ID>  (195) 
207639

>  <inchikey>  (195) 
PCOYOLXCWOQMAP-UHFFFAOYSA-N

>  <ref_pdb>  (195) 
A4586a

>  <alias>  (195) 
C124677-P100

>  <energy_score>  (195) 
-8.861399

>  <HIPPO Compound ID>  (195) 
46519

$$$$
C124687-P76
     RDKit          3D

 23 24  0  0  0  0  0  0  0  0999 V2000
    1.8426   12.8280    1.9432 C   0  0  0  0  0  0  0  0  0  0  0  0
    2.4737   11.4789    2.2798 C   0  0  1  0  0  0  0  0  0  0  0  0
    3.7732   11.6080    3.1206 C   0  0  0  0  0  0  0  0  0  0  0  0
    4.5859   12.7819    2.8560 N   0  0  0  0  0  0  0  0  0  0  0  0
    4.7769   14.0844    3.6829 C   0  0  0  0  0  0  0  0  0  0  0  0
    4.3694   14.3777    4.7391 O   0  0  0  0  0  0  0  0  0  0  0  0
    5.6263   15.0603    2.8525 C   0  0  0  0  0  0  0  0  0  0  0  0
    7.0798   15.1754    3.3352 C   0  0  0  0  0  0  0  0  0  0  0  0
    7.9238   14.0981    2.7532 C   0  0  0  0  0  0  0  0  0  0  0  0
    8.0483   12.7667    3.0825 C   0  0  0  0  0  0  0  0  0  0  0  0
    8.9269   12.2404    2.1208 C   0  0  0  0  0  0  0  0  0  0  0  0
    9.3667   13.1728    1.2718 N   0  0  0  0  0  0  0  0  0  0  0  0
    8.7593   14.2944    1.6864 N   0  0  0  0  0  0  0  0  0  0  0  0
    1.4886   10.6661    2.9896 N   0  0  0  0  0  0  0  0  0  0  0  0
    1.2208    9.1229    2.9434 C   0  0  0  0  0  0  0  0  0  0  0  0
    1.6986    8.2906    2.2729 O   0  0  0  0  0  0  0  0  0  0  0  0
    0.1628    8.8296    4.0590 C   0  0  2  0  0  0  0  0  0  0  0  0
    0.7980    9.2064    5.3920 C   0  0  0  0  0  0  0  0  0  0  0  0
    0.3691    8.2052    6.3256 N   0  0  0  0  0  0  0  0  0  0  0  0
   -0.1012    7.0988    5.6485 C   0  0  0  0  0  0  0  0  0  0  0  0
   -0.2798    6.0215    6.1933 O   0  0  0  0  0  0  0  0  0  0  0  0
   -0.2638    7.4527    4.3153 N   0  0  0  0  0  0  0  0  0  0  0  0
   -0.8559    6.6139    3.3037 C   0  0  0  0  0  0  0  0  0  0  0  0
  2  1  1  1
  2  3  1  0
  3  4  1  0
  4  5  1  0
  5  6  2  0
  5  7  1  0
  7  8  1  0
  8  9  1  0
  9 10  2  0
 10 11  1  0
 11 12  2  0
 12 13  1  0
  2 14  1  0
 14 15  1  0
 15 16  2  0
 17 15  1  6
 17 18  1  0
 18 19  1  0
 19 20  1  0
 20 21  2  0
 20 22  1  0
 22 23  1  0
 13  9  1  0
 22 17  1  0
M  END
>  <tags>  (196) 
{'openbind_a71ev2a_c1_knitwork_pure', 'fragmenstein_placed'}

>  <distance_score>  (196) 
0.909127

>  <ref_mols>  (196) 
A1081b,A0717a

>  <smiles>  (196) 
C[C@@H](CNC(=O)CCc1ccn[nH]1)NC(=O)[C@@H]1CNC(=O)N1C

>  <HIPPO Pose ID>  (196) 
207660

>  <inchikey>  (196) 
KACSHWFKVMPBNN-UHFFFAOYSA-N

>  <ref_pdb>  (196) 
A4586a

>  <alias>  (196) 
C124687-P76

>  <energy_score>  (196) 
-8.243006

>  <HIPPO Compound ID>  (196) 
46525

$$$$
C124689-P100
     RDKit          3D

 23 24  0  0  0  0  0  0  0  0999 V2000
    3.8257   10.9171   -0.4158 C   0  0  0  0  0  0  0  0  0  0  0  0
    2.8472   10.3131    0.5779 C   0  0  0  0  0  0  0  0  0  0  0  0
    3.3426   10.2722    2.0364 C   0  0  2  0  0  0  0  0  0  0  0  0
    4.5927    9.3867    2.2290 C   0  0  0  0  0  0  0  0  0  0  0  0
    5.8504   10.0536    1.9396 N   0  0  0  0  0  0  0  0  0  0  0  0
    7.2989    9.7147    2.3897 C   0  0  0  0  0  0  0  0  0  0  0  0
    7.6910    8.8941    3.1233 O   0  0  0  0  0  0  0  0  0  0  0  0
    8.2498   10.6168    1.5928 C   0  0  0  0  0  0  0  0  0  0  0  0
    8.2954   12.0366    2.0529 C   0  0  0  0  0  0  0  0  0  0  0  0
    7.7656   12.7133    3.1314 C   0  0  0  0  0  0  0  0  0  0  0  0
    8.2316   14.0351    2.9982 C   0  0  0  0  0  0  0  0  0  0  0  0
    9.0135   14.1933    1.9273 N   0  0  0  0  0  0  0  0  0  0  0  0
    9.0318   12.9705    1.3693 N   0  0  0  0  0  0  0  0  0  0  0  0
    2.2290    9.8408    2.8766 N   0  0  0  0  0  0  0  0  0  0  0  0
    1.6035    8.4277    3.0802 C   0  0  0  0  0  0  0  0  0  0  0  0
    1.8364    7.4120    2.5477 O   0  0  0  0  0  0  0  0  0  0  0  0
    0.4429    8.5612    4.1075 C   0  0  2  0  0  0  0  0  0  0  0  0
    0.8391    9.2257    5.4171 C   0  0  0  0  0  0  0  0  0  0  0  0
    0.1046    8.4879    6.4198 N   0  0  0  0  0  0  0  0  0  0  0  0
    0.2548    8.7804    7.8233 C   0  0  0  0  0  0  0  0  0  0  0  0
   -0.1353    7.2042    5.9354 C   0  0  0  0  0  0  0  0  0  0  0  0
   -0.3150    6.1884    6.5873 O   0  0  0  0  0  0  0  0  0  0  0  0
   -0.0719    7.2740    4.5505 N   0  0  0  0  0  0  0  0  0  0  0  0
  1  2  1  0
  3  2  1  6
  3  4  1  0
  4  5  1  0
  5  6  1  0
  6  7  2  0
  6  8  1  0
  8  9  1  0
  9 10  2  0
 10 11  1  0
 11 12  2  0
 12 13  1  0
  3 14  1  0
 14 15  1  0
 15 16  2  0
 17 15  1  6
 17 18  1  0
 18 19  1  0
 19 20  1  0
 19 21  1  0
 21 22  2  0
 21 23  1  0
 13  9  1  0
 23 17  1  0
M  END
>  <tags>  (197) 
{'openbind_a71ev2a_c1_knitwork_pure', 'fragmenstein_placed'}

>  <distance_score>  (197) 
0.938625

>  <ref_mols>  (197) 
A1081b,A0717a

>  <smiles>  (197) 
CC[C@H](CNC(=O)Cc1ccn[nH]1)NC(=O)[C@@H]1CN(C)C(=O)N1

>  <HIPPO Pose ID>  (197) 
207663

>  <inchikey>  (197) 
AEYMWTWOISXUPC-UHFFFAOYSA-N

>  <ref_pdb>  (197) 
A4586a

>  <alias>  (197) 
C124689-P100

>  <energy_score>  (197) 
-12.235175

>  <HIPPO Compound ID>  (197) 
53709

$$$$
C124693-P100
     RDKit          3D

 22 23  0  0  0  0  0  0  0  0999 V2000
    1.9469   10.8550    0.9136 C   0  0  0  0  0  0  0  0  0  0  0  0
    2.5538   10.2210    2.1590 C   0  0  1  0  0  0  0  0  0  0  0  0
    3.5489   11.1653    2.8666 C   0  0  0  0  0  0  0  0  0  0  0  0
    4.9216   10.8349    2.5827 N   0  0  0  0  0  0  0  0  0  0  0  0
    5.8036   11.1722    1.3561 C   0  0  0  0  0  0  0  0  0  0  0  0
    5.5783   11.8341    0.4222 O   0  0  0  0  0  0  0  0  0  0  0  0
    7.1425   10.4592    1.5334 C   0  0  0  0  0  0  0  0  0  0  0  0
    8.0328   11.0481    2.6218 C   0  0  0  0  0  0  0  0  0  0  0  0
    8.3280   12.4968    2.4393 C   0  0  0  0  0  0  0  0  0  0  0  0
    7.9077   13.6019    3.1475 C   0  0  0  0  0  0  0  0  0  0  0  0
    8.5714   14.6867    2.5510 C   0  0  0  0  0  0  0  0  0  0  0  0
    9.3766   14.3052    1.5572 N   0  0  0  0  0  0  0  0  0  0  0  0
    9.1604   12.9796    1.4643 N   0  0  0  0  0  0  0  0  0  0  0  0
    1.5036    9.8088    3.0749 N   0  0  0  0  0  0  0  0  0  0  0  0
    0.9328    8.3945    3.3870 C   0  0  0  0  0  0  0  0  0  0  0  0
    1.1678    7.3587    2.8990 O   0  0  0  0  0  0  0  0  0  0  0  0
   -0.0302    8.5449    4.5935 C   0  0  2  0  0  0  0  0  0  0  0  0
    0.7306    9.0698    5.8070 C   0  0  0  0  0  0  0  0  0  0  0  0
    0.5770    8.0643    6.8195 N   0  0  0  0  0  0  0  0  0  0  0  0
   -0.0371    6.9485    6.2931 C   0  0  0  0  0  0  0  0  0  0  0  0
   -0.0410    5.8471    6.8183 O   0  0  0  0  0  0  0  0  0  0  0  0
   -0.5558    7.2705    5.0549 N   0  0  0  0  0  0  0  0  0  0  0  0
  2  1  1  6
  2  3  1  0
  3  4  1  0
  4  5  1  0
  5  6  2  0
  5  7  1  0
  7  8  1  0
  8  9  1  0
  9 10  2  0
 10 11  1  0
 11 12  2  0
 12 13  1  0
  2 14  1  0
 14 15  1  0
 15 16  2  0
 17 15  1  6
 17 18  1  0
 18 19  1  0
 19 20  1  0
 20 21  2  0
 20 22  1  0
 13  9  1  0
 22 17  1  0
M  END
>  <tags>  (198) 
{'openbind_a71ev2a_c1_knitwork_pure', 'fragmenstein_placed'}

>  <distance_score>  (198) 
0.490583

>  <ref_mols>  (198) 
A1081b,A0717a

>  <smiles>  (198) 
C[C@@H](CNC(=O)CCc1ccn[nH]1)NC(=O)[C@@H]1CNC(=O)N1

>  <HIPPO Pose ID>  (198) 
207671

>  <inchikey>  (198) 
GXFRUHCYWOLZOD-UHFFFAOYSA-N

>  <ref_pdb>  (198) 
A4586a

>  <alias>  (198) 
C124693-P100

>  <energy_score>  (198) 
-11.781268

>  <HIPPO Compound ID>  (198) 
125044

$$$$
C39918-P76
     RDKit          3D

 24 25  0  0  0  0  0  0  0  0999 V2000
   -1.9956    5.5983    4.8493 C   0  0  0  0  0  0  0  0  0  0  0  0
   -1.3207    6.8184    5.2219 N   0  0  0  0  0  0  0  0  0  0  0  0
   -1.3114    7.9850    4.3674 C   0  0  0  0  0  0  0  0  0  0  0  0
   -0.2350    8.8789    4.9720 C   0  0  2  0  0  0  0  0  0  0  0  0
    0.8455    9.1652    3.9113 C   0  0  0  0  0  0  0  0  0  0  0  0
    1.8440    8.5641    3.8377 O   0  0  0  0  0  0  0  0  0  0  0  0
    0.3455   10.3931    3.0950 N   0  0  0  0  0  0  0  0  0  0  0  0
    0.9335   11.0669    1.9621 C   0  0  0  0  0  0  0  0  0  0  0  0
    2.4368   11.3187    2.1441 C   0  0  1  0  0  0  0  0  0  0  0  0
    2.9104   12.0918    1.0348 O   0  0  0  0  0  0  0  0  0  0  0  0
    2.7295   12.0653    3.4536 C   0  0  0  0  0  0  0  0  0  0  0  0
    4.1280   12.0026    3.7927 N   0  0  0  0  0  0  0  0  0  0  0  0
    5.2112   13.1066    3.7950 C   0  0  0  0  0  0  0  0  0  0  0  0
    5.1570   14.2180    3.4499 O   0  0  0  0  0  0  0  0  0  0  0  0
    6.4565   12.4452    4.3698 C   0  0  0  0  0  0  0  0  0  0  0  0
    7.6502   13.3825    4.4161 C   0  0  0  0  0  0  0  0  0  0  0  0
    8.2907   13.6056    3.0913 C   0  0  0  0  0  0  0  0  0  0  0  0
    8.8340   12.6407    2.2106 C   0  0  0  0  0  0  0  0  0  0  0  0
    9.3740   13.1893    1.1211 N   0  0  0  0  0  0  0  0  0  0  0  0
    9.1380   14.5003    1.2746 N   0  0  0  0  0  0  0  0  0  0  0  0
    8.5155   14.8040    2.4489 C   0  0  0  0  0  0  0  0  0  0  0  0
    0.2676    8.1292    6.1009 N   0  0  0  0  0  0  0  0  0  0  0  0
   -0.3059    6.8762    6.1628 C   0  0  0  0  0  0  0  0  0  0  0  0
    0.0473    5.9826    6.9150 O   0  0  0  0  0  0  0  0  0  0  0  0
  1  2  1  0
  2  3  1  0
  3  4  1  0
  4  5  1  6
  5  6  2  0
  5  7  1  0
  7  8  1  0
  8  9  1  0
  9 10  1  6
  9 11  1  0
 11 12  1  0
 12 13  1  0
 13 14  2  0
 13 15  1  0
 15 16  1  0
 16 17  1  0
 17 18  1  0
 18 19  2  0
 19 20  1  0
 20 21  1  0
  4 22  1  0
 22 23  1  0
 23 24  2  0
 23  2  1  0
 21 17  2  0
M  END
>  <tags>  (199) 
{'openbind_a71ev2a_c1_knitwork_pure', 'fragmenstein_placed'}

>  <distance_score>  (199) 
0.951638

>  <ref_mols>  (199) 
A1081b,A0717a

>  <smiles>  (199) 
CN1C[C@H](C(=O)NC[C@@H](O)CNC(=O)CCc2cn[nH]c2)NC1=O

>  <HIPPO Pose ID>  (199) 
207674

>  <inchikey>  (199) 
FLOGMMPAFYOKFI-UHFFFAOYSA-N

>  <ref_pdb>  (199) 
A4586a

>  <alias>  (199) 
C39918-P76

>  <energy_score>  (199) 
-23.059825

>  <HIPPO Compound ID>  (199) 
39918

$$$$
C39932-P100
     RDKit          3D

 23 25  0  0  0  0  0  0  0  0999 V2000
    5.5693   13.9526    4.8060 O   0  0  0  0  0  0  0  0  0  0  0  0
    5.9901   13.0476    4.1947 C   0  0  0  0  0  0  0  0  0  0  0  0
    7.4796   12.7212    4.1457 C   0  0  0  0  0  0  0  0  0  0  0  0
    8.1312   13.2460    2.9218 C   0  0  0  0  0  0  0  0  0  0  0  0
    8.7425   12.4959    1.8934 C   0  0  0  0  0  0  0  0  0  0  0  0
    9.2933   13.2688    0.9572 N   0  0  0  0  0  0  0  0  0  0  0  0
    9.0028   14.5156    1.3564 N   0  0  0  0  0  0  0  0  0  0  0  0
    8.3305   14.5575    2.5423 C   0  0  0  0  0  0  0  0  0  0  0  0
    5.2475   11.9311    3.4079 N   0  0  0  0  0  0  0  0  0  0  0  0
    3.8309   11.7533    3.1317 C   0  0  2  0  0  0  0  0  0  0  0  0
    3.4713   10.2441    3.0085 C   0  0  0  0  0  0  0  0  0  0  0  0
    2.4079    9.8082    3.8914 N   0  0  0  0  0  0  0  0  0  0  0  0
    0.9118   10.1937    3.9274 C   0  0  0  0  0  0  0  0  0  0  0  0
    0.2854   10.8632    3.2043 O   0  0  0  0  0  0  0  0  0  0  0  0
    0.2479    9.4986    5.1489 C   0  0  1  0  0  0  0  0  0  0  0  0
   -1.0657    8.8665    4.6705 C   0  0  0  0  0  0  0  0  0  0  0  0
   -1.1269    7.6101    5.3655 N   0  0  0  0  0  0  0  0  0  0  0  0
    0.0291    7.3537    6.0616 C   0  0  0  0  0  0  0  0  0  0  0  0
    0.2192    6.3676    6.7550 O   0  0  0  0  0  0  0  0  0  0  0  0
    0.9129    8.4026    5.8449 N   0  0  0  0  0  0  0  0  0  0  0  0
    3.3975   12.5020    1.8912 C   0  0  0  0  0  0  0  0  0  0  0  0
    3.9611   13.8439    1.4848 C   0  0  0  0  0  0  0  0  0  0  0  0
    4.2716   12.6213    0.6635 C   0  0  0  0  0  0  0  0  0  0  0  0
  1  2  2  0
  2  3  1  0
  3  4  1  0
  4  5  1  0
  5  6  2  0
  6  7  1  0
  7  8  1  0
  2  9  1  0
  9 10  1  0
 10 11  1  6
 11 12  1  0
 12 13  1  0
 13 14  2  0
 15 13  1  6
 15 16  1  0
 16 17  1  0
 17 18  1  0
 18 19  2  0
 18 20  1  0
 10 21  1  0
 21 22  1  0
 22 23  1  0
  8  4  2  0
 20 15  1  0
 23 21  1  0
M  END
>  <tags>  (200) 
{'openbind_a71ev2a_c1_knitwork_pure', 'fragmenstein_placed'}

>  <distance_score>  (200) 
0.687262

>  <ref_mols>  (200) 
A1081b,A0717a

>  <smiles>  (200) 
O=C(Cc1cn[nH]c1)N[C@H](CNC(=O)[C@H]1CNC(=O)N1)C1CC1

>  <HIPPO Pose ID>  (200) 
207699

>  <inchikey>  (200) 
DWFKNXQXPRRFIK-UHFFFAOYSA-N

>  <ref_pdb>  (200) 
A4586a

>  <alias>  (200) 
C39932-P100

>  <energy_score>  (200) 
-15.240381

>  <HIPPO Compound ID>  (200) 
56328

$$$$
C39946-P76
     RDKit          3D

 23 24  0  0  0  0  0  0  0  0999 V2000
    1.7639   13.7292    4.4195 C   0  0  0  0  0  0  0  0  0  0  0  0
    2.4679   13.0333    3.2560 C   0  0  2  0  0  0  0  0  0  0  0  0
    1.6221   11.9094    2.6274 C   0  0  0  0  0  0  0  0  0  0  0  0
    0.9977   11.0230    3.5824 N   0  0  0  0  0  0  0  0  0  0  0  0
    1.4125    9.5995    4.0625 C   0  0  0  0  0  0  0  0  0  0  0  0
    2.2766    8.9011    3.7010 O   0  0  0  0  0  0  0  0  0  0  0  0
    0.3517    9.1769    5.1088 C   0  0  1  0  0  0  0  0  0  0  0  0
   -0.8169    8.4911    4.4000 C   0  0  0  0  0  0  0  0  0  0  0  0
   -1.1409    7.3702    5.2603 N   0  0  0  0  0  0  0  0  0  0  0  0
   -2.0699    6.3440    4.8545 C   0  0  0  0  0  0  0  0  0  0  0  0
   -0.0960    7.1256    6.1454 C   0  0  0  0  0  0  0  0  0  0  0  0
    0.0524    6.1466    6.8597 O   0  0  0  0  0  0  0  0  0  0  0  0
    0.7798    8.1871    6.0649 N   0  0  0  0  0  0  0  0  0  0  0  0
    3.7952   12.6049    3.6467 N   0  0  0  0  0  0  0  0  0  0  0  0
    5.0577   13.4356    4.0062 C   0  0  0  0  0  0  0  0  0  0  0  0
    5.1976   14.5894    4.1166 O   0  0  0  0  0  0  0  0  0  0  0  0
    6.1804   12.4287    4.2207 C   0  0  0  0  0  0  0  0  0  0  0  0
    7.5445   13.0781    4.4110 C   0  0  0  0  0  0  0  0  0  0  0  0
    8.1944   13.4692    3.1308 C   0  0  0  0  0  0  0  0  0  0  0  0
    8.7981   12.6181    2.1758 C   0  0  0  0  0  0  0  0  0  0  0  0
    9.3340   13.2924    1.1568 N   0  0  0  0  0  0  0  0  0  0  0  0
    9.0391   14.5716    1.4318 N   0  0  0  0  0  0  0  0  0  0  0  0
    8.3747   14.7327    2.6115 C   0  0  0  0  0  0  0  0  0  0  0  0
  2  1  1  1
  2  3  1  0
  3  4  1  0
  4  5  1  0
  5  6  2  0
  7  5  1  6
  7  8  1  0
  8  9  1  0
  9 10  1  0
  9 11  1  0
 11 12  2  0
 11 13  1  0
  2 14  1  0
 14 15  1  0
 15 16  2  0
 15 17  1  0
 17 18  1  0
 18 19  1  0
 19 20  1  0
 20 21  2  0
 21 22  1  0
 22 23  1  0
 13  7  1  0
 23 19  2  0
M  END
>  <tags>  (201) 
{'openbind_a71ev2a_c1_knitwork_pure', 'fragmenstein_placed'}

>  <distance_score>  (201) 
0.980843

>  <ref_mols>  (201) 
A1081b,A0717a

>  <smiles>  (201) 
C[C@H](CNC(=O)[C@H]1CN(C)C(=O)N1)NC(=O)CCc1cn[nH]c1

>  <HIPPO Pose ID>  (201) 
207728

>  <inchikey>  (201) 
INIOVHDPBHGSSA-UHFFFAOYSA-N

>  <ref_pdb>  (201) 
A4586a

>  <alias>  (201) 
C39946-P76

>  <energy_score>  (201) 
-5.048963

>  <HIPPO Compound ID>  (201) 
45746

$$$$
C32372-P76
     RDKit          3D

 24 25  0  0  0  0  0  0  0  0999 V2000
    2.7540   11.8798    0.8461 C   0  0  0  0  0  0  0  0  0  0  0  0
    3.3691   11.0487    1.9699 C   0  0  1  0  0  0  0  0  0  0  0  0
    2.8570    9.5996    1.9160 C   0  0  0  0  0  0  0  0  0  0  0  0
    1.7157    9.3773    2.7738 N   0  0  0  0  0  0  0  0  0  0  0  0
    0.9304    8.0724    3.0916 C   0  0  0  0  0  0  0  0  0  0  0  0
    1.0396    6.9975    2.6489 O   0  0  0  0  0  0  0  0  0  0  0  0
   -0.0804    8.4040    4.2442 C   0  0  2  0  0  0  0  0  0  0  0  0
    0.6706    8.9967    5.4390 C   0  0  0  0  0  0  0  0  0  0  0  0
    0.5970    7.9997    6.4679 N   0  0  0  0  0  0  0  0  0  0  0  0
   -0.1754    6.9312    6.0707 C   0  0  0  0  0  0  0  0  0  0  0  0
   -0.2479    5.8938    6.7091 O   0  0  0  0  0  0  0  0  0  0  0  0
   -0.7663    7.2584    4.8555 N   0  0  0  0  0  0  0  0  0  0  0  0
   -1.5300    6.3047    4.0865 C   0  0  0  0  0  0  0  0  0  0  0  0
    4.8165   11.1292    1.9420 N   0  0  0  0  0  0  0  0  0  0  0  0
    5.7627   12.3627    2.0420 C   0  0  0  0  0  0  0  0  0  0  0  0
    5.5155   13.5057    2.0842 O   0  0  0  0  0  0  0  0  0  0  0  0
    7.2619   11.8333    2.0806 C   0  0  0  0  0  0  0  0  0  0  0  0
    7.5477   10.9728    0.8283 C   0  0  0  0  0  0  0  0  0  0  0  0
    7.4895   10.9816    3.3441 C   0  0  0  0  0  0  0  0  0  0  0  0
    8.1992   13.0450    2.1294 C   0  0  0  0  0  0  0  0  0  0  0  0
    8.2423   14.0640    3.1203 C   0  0  0  0  0  0  0  0  0  0  0  0
    9.1410   14.9888    2.6502 C   0  0  0  0  0  0  0  0  0  0  0  0
    9.6080   14.4871    1.4750 N   0  0  0  0  0  0  0  0  0  0  0  0
    9.1118   13.2804    1.1707 N   0  0  0  0  0  0  0  0  0  0  0  0
  2  1  1  6
  2  3  1  0
  3  4  1  0
  4  5  1  0
  5  6  2  0
  7  5  1  6
  7  8  1  0
  8  9  1  0
  9 10  1  0
 10 11  2  0
 10 12  1  0
 12 13  1  0
  2 14  1  0
 14 15  1  0
 15 16  2  0
 15 17  1  0
 17 18  1  0
 17 19  1  0
 17 20  1  0
 20 21  1  0
 21 22  2  0
 22 23  1  0
 23 24  1  0
 12  7  1  0
 24 20  2  0
M  END
>  <tags>  (202) 
{'openbind_a71ev2a_c1_knitwork_pure', 'fragmenstein_placed'}

>  <distance_score>  (202) 
0.939593

>  <ref_mols>  (202) 
A1081b,A0717a

>  <smiles>  (202) 
C[C@@H](CNC(=O)[C@@H]1CNC(=O)N1C)NC(=O)C(C)(C)c1cc[nH]n1

>  <HIPPO Pose ID>  (202) 
207808

>  <inchikey>  (202) 
SPHUOMUWTFJILN-UHFFFAOYSA-N

>  <ref_pdb>  (202) 
A4586a

>  <alias>  (202) 
C32372-P76

>  <energy_score>  (202) 
-11.506619

>  <HIPPO Compound ID>  (202) 
52406

$$$$
C63894-P229
     RDKit          3D

 14 15  0  0  0  0  0  0  0  0999 V2000
    8.8881   15.3071   27.8004 N   0  0  0  0  0  0  0  0  0  0  0  0
    9.9169   15.2842   26.8328 C   0  0  0  0  0  0  0  0  0  0  0  0
   10.9634   16.1933   26.8582 C   0  0  0  0  0  0  0  0  0  0  0  0
   11.9303   16.2537   25.9204 N   0  0  0  0  0  0  0  0  0  0  0  0
   11.8107   15.4213   24.8648 C   0  0  0  0  0  0  0  0  0  0  0  0
   10.7880   14.5114   24.7153 C   0  0  0  0  0  0  0  0  0  0  0  0
    9.8090   14.4438   25.7026 C   0  0  0  0  0  0  0  0  0  0  0  0
    8.7782   13.5045   25.6930 N   0  0  0  0  0  0  0  0  0  0  0  0
    8.6987   12.4674   24.6815 C   0  0  0  0  0  0  0  0  0  0  0  0
    7.9446   11.2903   25.1636 C   0  0  0  0  0  0  0  0  0  0  0  0
    8.0621    9.9364   24.9683 C   0  0  0  0  0  0  0  0  0  0  0  0
    7.0738    9.2841   25.6618 N   0  0  0  0  0  0  0  0  0  0  0  0
    6.4241   10.2528   26.2673 C   0  0  0  0  0  0  0  0  0  0  0  0
    6.8949   11.5023   26.0200 O   0  0  0  0  0  0  0  0  0  0  0  0
  1  2  1  0
  2  3  2  0
  3  4  1  0
  4  5  2  0
  5  6  1  0
  6  7  2  0
  7  8  1  0
  8  9  1  0
  9 10  1  0
 10 11  2  0
 11 12  1  0
 12 13  2  0
 13 14  1  0
  7  2  1  0
 14 10  1  0
M  END
>  <tags>  (203) 
{'openbind_a71ev2a_c1_knitwork_pure', 'fragmenstein_placed'}

>  <distance_score>  (203) 
0.927918

>  <ref_mols>  (203) 
A3623a,A3869a

>  <smiles>  (203) 
Nc1cnccc1NCc1cnco1

>  <HIPPO Pose ID>  (203) 
208067

>  <inchikey>  (203) 
BYVLLCRZBAXVSG-UHFFFAOYSA-N

>  <ref_pdb>  (203) 
A4586a

>  <alias>  (203) 
C63894-P229

>  <energy_score>  (203) 
-22.542281

>  <HIPPO Compound ID>  (203) 
45737

$$$$
C63895-P229
     RDKit          3D

 14 15  0  0  0  0  0  0  0  0999 V2000
    8.2105   14.3622   21.2497 F   0  0  0  0  0  0  0  0  0  0  0  0
    9.4215   14.7176   21.7095 C   0  0  0  0  0  0  0  0  0  0  0  0
   10.2985   15.4320   20.9116 C   0  0  0  0  0  0  0  0  0  0  0  0
   11.5397   15.7843   21.3124 N   0  0  0  0  0  0  0  0  0  0  0  0
   11.9060   15.4087   22.5518 C   0  0  0  0  0  0  0  0  0  0  0  0
   11.0880   14.7059   23.4261 C   0  0  0  0  0  0  0  0  0  0  0  0
    9.8135   14.3306   22.9976 C   0  0  0  0  0  0  0  0  0  0  0  0
    8.9209   13.6217   23.8341 N   0  0  0  0  0  0  0  0  0  0  0  0
    9.4729   12.4186   24.4494 C   0  0  0  0  0  0  0  0  0  0  0  0
    8.4692   11.4674   24.9921 C   0  0  0  0  0  0  0  0  0  0  0  0
    8.2729   10.1117   24.8613 C   0  0  0  0  0  0  0  0  0  0  0  0
    7.1864    9.7211   25.6048 N   0  0  0  0  0  0  0  0  0  0  0  0
    6.7603   10.8453   26.1383 C   0  0  0  0  0  0  0  0  0  0  0  0
    7.5055   11.9449   25.8402 O   0  0  0  0  0  0  0  0  0  0  0  0
  1  2  1  0
  2  3  2  0
  3  4  1  0
  4  5  2  0
  5  6  1  0
  6  7  2  0
  7  8  1  0
  8  9  1  0
  9 10  1  0
 10 11  2  0
 11 12  1  0
 12 13  2  0
 13 14  1  0
  7  2  1  0
 14 10  1  0
M  END
>  <tags>  (204) 
{'openbind_a71ev2a_c1_knitwork_pure', 'fragmenstein_placed'}

>  <distance_score>  (204) 
0.937273

>  <ref_mols>  (204) 
A3623a,A3869a

>  <smiles>  (204) 
Fc1cnccc1NCc1cnco1

>  <HIPPO Pose ID>  (204) 
208068

>  <inchikey>  (204) 
WJNGKPOBVKGESA-UHFFFAOYSA-N

>  <ref_pdb>  (204) 
A4586a

>  <alias>  (204) 
C63895-P229

>  <energy_score>  (204) 
-17.245187

>  <HIPPO Compound ID>  (204) 
63895

$$$$
C46328-P354
     RDKit          3D

 19 21  0  0  0  0  0  0  0  0999 V2000
    5.3175   12.0439   28.4499 O   0  0  0  0  0  0  0  0  0  0  0  0
    5.3458   11.1607   27.6896 C   0  0  0  0  0  0  0  0  0  0  0  0
    4.5669    9.8303   27.6743 N   0  0  0  0  0  0  0  0  0  0  0  0
    3.5166    9.3468   28.5426 C   0  0  0  0  0  0  0  0  0  0  0  0
    4.0538    8.4461   29.6620 C   0  0  2  0  0  0  0  0  0  0  0  0
    2.9406    7.4899   30.1443 C   0  0  0  0  0  0  0  0  0  0  0  0
    3.1216    7.1382   31.6156 C   0  0  0  0  0  0  0  0  0  0  0  0
    3.0890    8.4010   32.4837 C   0  0  0  0  0  0  0  0  0  0  0  0
    3.6224    9.5888   31.8144 N   0  0  0  0  0  0  0  0  0  0  0  0
    4.6468    9.2590   30.8306 C   0  0  0  0  0  0  0  0  0  0  0  0
    6.2975   11.2894   26.5273 C   0  0  0  0  0  0  0  0  0  0  0  0
    6.6909   12.5805   26.1405 C   0  0  0  0  0  0  0  0  0  0  0  0
    7.6473   12.7959   25.1384 C   0  0  0  0  0  0  0  0  0  0  0  0
    8.2107   11.6646   24.5496 C   0  0  0  0  0  0  0  0  0  0  0  0
    9.1758   11.5234   23.5864 N   0  0  0  0  0  0  0  0  0  0  0  0
    9.4572   10.2506   23.2867 N   0  0  0  0  0  0  0  0  0  0  0  0
    8.6467    9.5482   24.0756 C   0  0  0  0  0  0  0  0  0  0  0  0
    7.8415   10.3710   24.8948 C   0  0  0  0  0  0  0  0  0  0  0  0
    6.8652   10.1765   25.8893 C   0  0  0  0  0  0  0  0  0  0  0  0
  1  2  2  0
  2  3  1  0
  3  4  1  0
  5  4  1  6
  5  6  1  0
  6  7  1  0
  7  8  1  0
  8  9  1  0
  9 10  1  0
  2 11  1  0
 11 12  2  0
 12 13  1  0
 13 14  2  0
 14 15  1  0
 15 16  1  0
 16 17  2  0
 17 18  1  0
 18 19  2  0
 10  5  1  0
 19 11  1  0
 18 14  1  0
M  END
>  <tags>  (205) 
{'openbind_a71ev2a_c1_knitwork_pure', 'fragmenstein_placed'}

>  <distance_score>  (205) 
0.718088

>  <ref_mols>  (205) 
A0486a,A4415a

>  <smiles>  (205) 
O=C(NC[C@@H]1CCCNC1)c1ccc2[nH]ncc2c1

>  <HIPPO Pose ID>  (205) 
208948

>  <inchikey>  (205) 
YTMNIWJWKYPQRC-UHFFFAOYSA-N

>  <ref_pdb>  (205) 
A4586a

>  <alias>  (205) 
C46328-P354

>  <energy_score>  (205) 
-23.864814

>  <HIPPO Compound ID>  (205) 
49222

$$$$
C54664-P557
     RDKit          3D

 22 25  0  0  0  0  0  0  0  0999 V2000
   23.9584   28.7212   13.1461 O   0  0  0  0  0  0  0  0  0  0  0  0
   23.4237   27.8078   13.7530 C   0  0  0  0  0  0  0  0  0  0  0  0
   23.5331   27.5663   15.2264 C   0  0  0  0  0  0  0  0  0  0  0  0
   22.4401   26.5309   15.5296 C   0  0  2  0  0  0  0  0  0  0  0  0
   22.9697   25.3731   16.2902 N   0  0  0  0  0  0  0  0  0  0  0  0
   23.3384   25.7364   17.6599 C   0  0  0  0  0  0  0  0  0  0  0  0
   24.1837   24.6228   18.2788 C   0  0  0  0  0  0  0  0  0  0  0  0
   23.6982   23.2080   17.9005 C   0  0  0  0  0  0  0  0  0  0  0  0
   23.9741   22.2722   18.9885 N   0  0  0  0  0  0  0  0  0  0  0  0
   22.9803   21.8450   19.8079 N   0  0  0  0  0  0  0  0  0  0  0  0
   23.6322   21.1626   20.7531 C   0  0  0  0  0  0  0  0  0  0  0  0
   25.0293   21.1441   20.5600 C   0  0  0  0  0  0  0  0  0  0  0  0
   26.1373   20.6041   21.2359 C   0  0  0  0  0  0  0  0  0  0  0  0
   27.4166   20.8075   20.7046 C   0  0  0  0  0  0  0  0  0  0  0  0
   27.5950   21.5232   19.5225 C   0  0  0  0  0  0  0  0  0  0  0  0
   26.5043   22.0639   18.8368 C   0  0  0  0  0  0  0  0  0  0  0  0
   25.2293   21.8620   19.3856 C   0  0  0  0  0  0  0  0  0  0  0  0
   22.2328   23.2590   17.4695 C   0  0  0  0  0  0  0  0  0  0  0  0
   22.0526   24.2179   16.2871 C   0  0  0  0  0  0  0  0  0  0  0  0
   21.9230   26.1761   14.1355 C   0  0  0  0  0  0  0  0  0  0  0  0
   20.9660   25.4592   13.8800 O   0  0  0  0  0  0  0  0  0  0  0  0
   22.6263   26.8646   13.2042 N   0  0  0  0  0  0  0  0  0  0  0  0
  1  2  2  0
  2  3  1  0
  3  4  1  0
  4  5  1  6
  5  6  1  0
  6  7  1  0
  7  8  1  0
  8  9  1  0
  9 10  1  0
 10 11  2  0
 11 12  1  0
 12 13  2  0
 13 14  1  0
 14 15  2  0
 15 16  1  0
 16 17  2  0
  8 18  1  0
 18 19  1  0
  4 20  1  0
 20 21  2  0
 20 22  1  0
 22  2  1  0
 19  5  1  0
 17  9  1  0
 17 12  1  0
M  END
>  <tags>  (206) 
{'openbind_a71ev2a_c1_knitwork_pure', 'fragmenstein_placed'}

>  <distance_score>  (206) 
0.414882

>  <ref_mols>  (206) 
A3181b,A5079a

>  <smiles>  (206) 
O=C1C[C@H](N2CCC(n3ncc4ccccc43)CC2)C(=O)N1

>  <HIPPO Pose ID>  (206) 
209597

>  <inchikey>  (206) 
HKXZWNGJYYWBSS-UHFFFAOYSA-N

>  <ref_pdb>  (206) 
A4586a

>  <alias>  (206) 
C54664-P557

>  <energy_score>  (206) 
-39.798231

>  <HIPPO Compound ID>  (206) 
124652

$$$$
C46023-P308
     RDKit          3D

 19 21  0  0  0  0  0  0  0  0999 V2000
   12.0923   16.3044   21.1194 C   0  0  0  0  0  0  0  0  0  0  0  0
   11.5052   14.9548   21.4888 C   0  0  0  0  0  0  0  0  0  0  0  0
   11.6535   14.6834   22.9867 C   0  0  0  0  0  0  0  0  0  0  0  0
   10.5992   15.4216   23.8054 C   0  0  0  0  0  0  0  0  0  0  0  0
    9.2191   15.1494   23.3753 N   0  0  0  0  0  0  0  0  0  0  0  0
    8.7978   13.7397   23.5338 C   0  0  0  0  0  0  0  0  0  0  0  0
    8.7552   13.2951   24.9879 C   0  0  0  0  0  0  0  0  0  0  0  0
    9.5508   13.6098   25.8684 O   0  0  0  0  0  0  0  0  0  0  0  0
    7.7067   12.3281   25.3433 C   0  0  0  0  0  0  0  0  0  0  0  0
    7.8351   10.9936   24.9291 C   0  0  0  0  0  0  0  0  0  0  0  0
    6.9020   10.0480   25.3559 C   0  0  0  0  0  0  0  0  0  0  0  0
    5.8941   10.4463   26.2154 C   0  0  0  0  0  0  0  0  0  0  0  0
    5.7706   11.7825   26.6027 C   0  0  0  0  0  0  0  0  0  0  0  0
    6.6604   12.7464   26.1695 C   0  0  0  0  0  0  0  0  0  0  0  0
    4.5986   11.9211   27.5157 C   0  0  0  0  0  0  0  0  0  0  0  0
    4.3425   10.4375   27.8562 C   0  0  0  0  0  0  0  0  0  0  0  0
    4.8532    9.6499   26.7280 N   0  0  0  0  0  0  0  0  0  0  0  0
    9.0699   15.5805   21.9724 C   0  0  0  0  0  0  0  0  0  0  0  0
   10.0445   14.8780   21.0265 C   0  0  0  0  0  0  0  0  0  0  0  0
  1  2  1  0
  2  3  1  0
  3  4  1  0
  4  5  1  0
  5  6  1  0
  6  7  1  0
  7  8  2  0
  7  9  1  0
  9 10  2  0
 10 11  1  0
 11 12  2  0
 12 13  1  0
 13 14  2  0
 13 15  1  0
 15 16  1  0
 16 17  1  0
  5 18  1  0
 18 19  1  0
 19  2  1  0
 14  9  1  0
 17 12  1  0
M  END
>  <tags>  (207) 
{'openbind_a71ev2a_c1_knitwork_pure', 'fragmenstein_placed'}

>  <distance_score>  (207) 
0.681972

>  <ref_mols>  (207) 
A1778a,A4331a

>  <smiles>  (207) 
CC1CCN(CC(=O)c2ccc3c(c2)CCN3)CC1

>  <HIPPO Pose ID>  (207) 
210081

>  <inchikey>  (207) 
IKNFMHZKPYNCLN-UHFFFAOYSA-N

>  <ref_pdb>  (207) 
A1293a

>  <alias>  (207) 
C46023-P308

>  <energy_score>  (207) 
-34.047881

>  <HIPPO Compound ID>  (207) 
2619

$$$$
C46024-P308
     RDKit          3D

 19 21  0  0  0  0  0  0  0  0999 V2000
   10.4148   15.8428   19.4987 C   0  0  0  0  0  0  0  0  0  0  0  0
   10.4821   15.2021   20.8820 C   0  0  1  0  0  0  0  0  0  0  0  0
   11.8106   15.5683   21.5446 C   0  0  0  0  0  0  0  0  0  0  0  0
   11.8583   15.0249   22.9632 C   0  0  0  0  0  0  0  0  0  0  0  0
   10.6514   15.5360   23.7407 C   0  0  0  0  0  0  0  0  0  0  0  0
    9.3598   15.1270   23.1666 N   0  0  0  0  0  0  0  0  0  0  0  0
    9.0730   13.6798   23.2734 C   0  0  0  0  0  0  0  0  0  0  0  0
    9.0172   13.1940   24.7229 C   0  0  0  0  0  0  0  0  0  0  0  0
    9.8582   13.4173   25.5913 O   0  0  0  0  0  0  0  0  0  0  0  0
    7.9131   12.3009   25.1034 C   0  0  0  0  0  0  0  0  0  0  0  0
    8.0013   10.9372   24.7853 C   0  0  0  0  0  0  0  0  0  0  0  0
    7.0384   10.0496   25.2708 C   0  0  0  0  0  0  0  0  0  0  0  0
    6.0403   10.5337   26.0962 C   0  0  0  0  0  0  0  0  0  0  0  0
    5.9583   11.8963   26.3918 C   0  0  0  0  0  0  0  0  0  0  0  0
    6.8801   12.8026   25.8998 C   0  0  0  0  0  0  0  0  0  0  0  0
    4.7818   12.1344   27.2777 C   0  0  0  0  0  0  0  0  0  0  0  0
    4.4680   10.6866   27.7100 C   0  0  0  0  0  0  0  0  0  0  0  0
    4.9680    9.8078   26.6459 N   0  0  0  0  0  0  0  0  0  0  0  0
    9.2813   15.6026   21.7648 C   0  0  0  0  0  0  0  0  0  0  0  0
  2  1  1  6
  2  3  1  0
  3  4  1  0
  4  5  1  0
  5  6  1  0
  6  7  1  0
  7  8  1  0
  8  9  2  0
  8 10  1  0
 10 11  2  0
 11 12  1  0
 12 13  2  0
 13 14  1  0
 14 15  2  0
 14 16  1  0
 16 17  1  0
 17 18  1  0
  6 19  1  0
 19  2  1  0
 15 10  1  0
 18 13  1  0
M  END
>  <tags>  (208) 
{'openbind_a71ev2a_c1_knitwork_pure', 'fragmenstein_placed'}

>  <distance_score>  (208) 
0.687399

>  <ref_mols>  (208) 
A1778a,A4331a

>  <smiles>  (208) 
C[C@H]1CCCN(CC(=O)c2ccc3c(c2)CCN3)C1

>  <HIPPO Pose ID>  (208) 
210082

>  <inchikey>  (208) 
GCNBWOGZRKAZBP-UHFFFAOYSA-N

>  <ref_pdb>  (208) 
A1293a

>  <alias>  (208) 
C46024-P308

>  <energy_score>  (208) 
-32.592187

>  <HIPPO Compound ID>  (208) 
46024

$$$$
C47049-P481
     RDKit          3D

 18 20  0  0  0  0  0  0  0  0999 V2000
   10.2027   14.6394   23.2717 C   0  0  0  0  0  0  0  0  0  0  0  0
    9.1477   13.5551   23.1581 C   0  0  0  0  0  0  0  0  0  0  0  0
    8.3097   13.3293   24.3820 C   0  0  0  0  0  0  0  0  0  0  0  0
    7.8174   12.1487   24.6946 N   0  0  0  0  0  0  0  0  0  0  0  0
    6.9260   12.2693   25.7458 C   0  0  0  0  0  0  0  0  0  0  0  0
    6.1558   11.2313   26.2986 C   0  0  0  0  0  0  0  0  0  0  0  0
    5.2684   11.5003   27.3475 C   0  0  0  0  0  0  0  0  0  0  0  0
    5.1506   12.7854   27.8814 C   0  0  0  0  0  0  0  0  0  0  0  0
    4.1979   13.0562   29.0249 C   0  0  0  0  0  0  0  0  0  0  0  0
    4.6864   12.6858   30.4415 C   0  0  1  0  0  0  0  0  0  0  0  0
    4.8927   11.1831   30.6591 C   0  0  0  0  0  0  0  0  0  0  0  0
    5.2418   10.8793   32.1210 C   0  0  0  0  0  0  0  0  0  0  0  0
    5.7768   12.0960   32.8788 C   0  0  0  0  0  0  0  0  0  0  0  0
    6.6489   12.8915   32.0257 N   0  0  0  0  0  0  0  0  0  0  0  0
    5.9439   13.4676   30.8735 C   0  0  0  0  0  0  0  0  0  0  0  0
    5.9190   13.8308   27.3408 C   0  0  0  0  0  0  0  0  0  0  0  0
    6.7920   13.5513   26.2742 C   0  0  0  0  0  0  0  0  0  0  0  0
    7.8239   14.6183   25.4086 S   0  0  0  0  0  0  0  0  0  0  0  0
  1  2  1  0
  2  3  1  0
  3  4  2  0
  4  5  1  0
  5  6  2  0
  6  7  1  0
  7  8  2  0
  8  9  1  0
 10  9  1  6
 10 11  1  0
 11 12  1  0
 12 13  1  0
 13 14  1  0
 14 15  1  0
  8 16  1  0
 16 17  2  0
 17 18  1  0
 18  3  1  0
 17  5  1  0
 15 10  1  0
M  END
>  <tags>  (209) 
{'openbind_a71ev2a_c1_knitwork_pure', 'fragmenstein_placed'}

>  <distance_score>  (209) 
0.824134

>  <ref_mols>  (209) 
A0514b,A4836a

>  <smiles>  (209) 
CCc1nc2ccc(C[C@H]3CCCNC3)cc2s1

>  <HIPPO Pose ID>  (209) 
210809

>  <inchikey>  (209) 
GEQKRUDQJJRSJX-UHFFFAOYSA-N

>  <ref_pdb>  (209) 
A1180a

>  <alias>  (209) 
C47049-P481

>  <energy_score>  (209) 
-65.879278

>  <HIPPO Compound ID>  (209) 
49904

$$$$
C47057-P481
     RDKit          3D

 24 26  0  0  0  0  0  0  0  0999 V2000
   12.1863   16.0170   21.7334 C   0  0  0  0  0  0  0  0  0  0  0  0
   10.9119   15.5293   21.0550 C   0  0  0  0  0  0  0  0  0  0  0  0
   11.2660   14.9536   19.6795 C   0  0  0  0  0  0  0  0  0  0  0  0
    9.8742   16.6350   20.8490 C   0  0  0  0  0  0  0  0  0  0  0  0
   10.3364   14.4418   21.8303 O   0  0  0  0  0  0  0  0  0  0  0  0
    9.8740   14.6935   23.0864 C   0  0  0  0  0  0  0  0  0  0  0  0
    9.9926   15.7033   23.6445 O   0  0  0  0  0  0  0  0  0  0  0  0
    9.1336   13.4274   23.4852 N   0  0  0  0  0  0  0  0  0  0  0  0
    8.3434   13.1700   24.5521 C   0  0  0  0  0  0  0  0  0  0  0  0
    7.7726   12.0155   24.7865 N   0  0  0  0  0  0  0  0  0  0  0  0
    6.8902   12.1624   25.8476 C   0  0  0  0  0  0  0  0  0  0  0  0
    6.0569   11.1630   26.3820 C   0  0  0  0  0  0  0  0  0  0  0  0
    5.1848   11.4660   27.4364 C   0  0  0  0  0  0  0  0  0  0  0  0
    5.1301   12.7521   27.9781 C   0  0  0  0  0  0  0  0  0  0  0  0
    4.1638   13.0723   29.0969 C   0  0  0  0  0  0  0  0  0  0  0  0
    3.0395   14.0395   28.6786 C   0  0  1  0  0  0  0  0  0  0  0  0
    2.1324   13.4348   27.5908 C   0  0  0  0  0  0  0  0  0  0  0  0
    0.7395   14.0652   27.5711 C   0  0  0  0  0  0  0  0  0  0  0  0
    0.7312   15.4515   28.2014 C   0  0  0  0  0  0  0  0  0  0  0  0
    1.1654   15.4357   29.5999 N   0  0  0  0  0  0  0  0  0  0  0  0
    2.2015   14.4470   29.8985 C   0  0  0  0  0  0  0  0  0  0  0  0
    5.9777   13.7519   27.4782 C   0  0  0  0  0  0  0  0  0  0  0  0
    6.8417   13.4350   26.4181 C   0  0  0  0  0  0  0  0  0  0  0  0
    7.9756   14.4417   25.6196 S   0  0  0  0  0  0  0  0  0  0  0  0
  1  2  1  0
  2  3  1  0
  2  4  1  0
  2  5  1  0
  5  6  1  0
  6  7  2  0
  6  8  1  0
  8  9  1  0
  9 10  2  0
 10 11  1  0
 11 12  2  0
 12 13  1  0
 13 14  2  0
 14 15  1  0
 16 15  1  1
 16 17  1  0
 17 18  1  0
 18 19  1  0
 19 20  1  0
 20 21  1  0
 14 22  1  0
 22 23  2  0
 23 24  1  0
 24  9  1  0
 23 11  1  0
 21 16  1  0
M  END
>  <tags>  (210) 
{'openbind_a71ev2a_c1_knitwork_pure', 'fragmenstein_placed'}

>  <distance_score>  (210) 
0.800235

>  <ref_mols>  (210) 
A0514b,A4836a

>  <smiles>  (210) 
CC(C)(C)OC(=O)Nc1nc2ccc(C[C@H]3CCCNC3)cc2s1

>  <HIPPO Pose ID>  (210) 
210814

>  <inchikey>  (210) 
KEVJLIOFDCEABV-UHFFFAOYSA-N

>  <ref_pdb>  (210) 
A1180a

>  <alias>  (210) 
C47057-P481

>  <energy_score>  (210) 
-58.085312

>  <HIPPO Compound ID>  (210) 
65365

$$$$
C47072-P481
     RDKit          3D

 21 23  0  0  0  0  0  0  0  0999 V2000
    5.7743   16.0669   28.0765 O   0  0  0  0  0  0  0  0  0  0  0  0
    6.0495   15.0630   28.5941 C   0  0  0  0  0  0  0  0  0  0  0  0
    6.4657   14.7714   30.0432 N   0  0  0  0  0  0  0  0  0  0  0  0
    6.7253   15.6737   31.1488 C   0  0  1  0  0  0  0  0  0  0  0  0
    5.4357   15.9300   31.9399 C   0  0  0  0  0  0  0  0  0  0  0  0
    5.3267   15.0434   33.1853 C   0  0  0  0  0  0  0  0  0  0  0  0
    5.9950   13.6844   32.9911 C   0  0  0  0  0  0  0  0  0  0  0  0
    7.4109   13.7533   32.6075 N   0  0  0  0  0  0  0  0  0  0  0  0
    7.8035   15.0697   32.0660 C   0  0  0  0  0  0  0  0  0  0  0  0
    6.0161   13.8024   27.8160 C   0  0  0  0  0  0  0  0  0  0  0  0
    5.2227   12.7329   28.2605 C   0  0  0  0  0  0  0  0  0  0  0  0
    5.2181   11.5257   27.5755 C   0  0  0  0  0  0  0  0  0  0  0  0
    6.0042   11.3690   26.4309 C   0  0  0  0  0  0  0  0  0  0  0  0
    6.7668   12.4466   25.9355 C   0  0  0  0  0  0  0  0  0  0  0  0
    7.5284   12.4233   24.7838 N   0  0  0  0  0  0  0  0  0  0  0  0
    8.0049   13.6299   24.5404 C   0  0  0  0  0  0  0  0  0  0  0  0
    8.6056   14.0867   23.2491 C   0  0  0  0  0  0  0  0  0  0  0  0
    8.1326   13.3350   22.2167 F   0  0  0  0  0  0  0  0  0  0  0  0
    9.9579   13.9680   23.2436 F   0  0  0  0  0  0  0  0  0  0  0  0
    7.8068   14.7601   25.8155 S   0  0  0  0  0  0  0  0  0  0  0  0
    6.7665   13.6569   26.6357 C   0  0  0  0  0  0  0  0  0  0  0  0
  1  2  2  0
  2  3  1  0
  4  3  1  6
  4  5  1  0
  5  6  1  0
  6  7  1  0
  7  8  1  0
  8  9  1  0
  2 10  1  0
 10 11  2  0
 11 12  1  0
 12 13  2  0
 13 14  1  0
 14 15  1  0
 15 16  2  0
 16 17  1  0
 17 18  1  0
 17 19  1  0
 16 20  1  0
 20 21  1  0
  9  4  1  0
 21 10  1  0
 21 14  2  0
M  END
>  <tags>  (211) 
{'openbind_a71ev2a_c1_knitwork_pure', 'fragmenstein_placed'}

>  <distance_score>  (211) 
0.68086

>  <ref_mols>  (211) 
A0514b,A4836a

>  <smiles>  (211) 
O=C(N[C@H]1CCCNC1)c1cccc2nc(C(F)F)sc12

>  <HIPPO Pose ID>  (211) 
210820

>  <inchikey>  (211) 
FBFBYAKCUCMEEP-UHFFFAOYSA-N

>  <ref_pdb>  (211) 
A1180a

>  <alias>  (211) 
C47072-P481

>  <energy_score>  (211) 
-57.562386

>  <HIPPO Compound ID>  (211) 
47091

$$$$
C46343-P371
     RDKit          3D

 20 22  0  0  0  0  0  0  0  0999 V2000
    9.6936   14.9645   23.6792 C   0  0  0  0  0  0  0  0  0  0  0  0
    9.0040   13.7978   23.0093 C   0  0  0  0  0  0  0  0  0  0  0  0
    8.8614   12.6462   23.8807 N   0  0  0  0  0  0  0  0  0  0  0  0
    9.8135   11.6888   23.8706 N   0  0  0  0  0  0  0  0  0  0  0  0
    9.2102   10.6434   24.4395 C   0  0  0  0  0  0  0  0  0  0  0  0
    7.9380   10.9754   24.9476 C   0  0  0  0  0  0  0  0  0  0  0  0
    6.9096   10.2938   25.6079 C   0  0  0  0  0  0  0  0  0  0  0  0
    5.7952   11.0042   26.0716 C   0  0  0  0  0  0  0  0  0  0  0  0
    5.6489   12.3615   25.7879 C   0  0  0  0  0  0  0  0  0  0  0  0
    4.5059   13.0647   26.1733 N   0  0  0  0  0  0  0  0  0  0  0  0
    3.2783   12.6142   27.0255 C   0  0  0  0  0  0  0  0  0  0  0  0
    3.0778   11.6103   27.5968 O   0  0  0  0  0  0  0  0  0  0  0  0
    2.1896   13.6965   26.9519 C   0  0  1  0  0  0  0  0  0  0  0  0
    2.6124   15.0921   27.4105 C   0  0  0  0  0  0  0  0  0  0  0  0
    1.4358   16.0599   27.2645 C   0  0  0  0  0  0  0  0  0  0  0  0
    0.8427   16.0136   25.8540 C   0  0  0  0  0  0  0  0  0  0  0  0
    0.4472   14.6627   25.4571 N   0  0  0  0  0  0  0  0  0  0  0  0
    1.5737   13.7338   25.5505 C   0  0  0  0  0  0  0  0  0  0  0  0
    6.6226   13.0387   25.0392 C   0  0  0  0  0  0  0  0  0  0  0  0
    7.7653   12.3212   24.6455 C   0  0  0  0  0  0  0  0  0  0  0  0
  1  2  1  0
  2  3  1  0
  3  4  1  0
  4  5  2  0
  5  6  1  0
  6  7  2  0
  7  8  1  0
  8  9  2  0
  9 10  1  0
 10 11  1  0
 11 12  2  0
 13 11  1  6
 13 14  1  0
 14 15  1  0
 15 16  1  0
 16 17  1  0
 17 18  1  0
  9 19  1  0
 19 20  2  0
 20  3  1  0
 20  6  1  0
 18 13  1  0
M  END
>  <tags>  (212) 
{'openbind_a71ev2a_c1_knitwork_pure', 'fragmenstein_placed'}

>  <distance_score>  (212) 
0.920055

>  <ref_mols>  (212) 
A4456a,A0497a

>  <smiles>  (212) 
CCn1ncc2ccc(NC(=O)[C@H]3CCCNC3)cc21

>  <HIPPO Pose ID>  (212) 
211246

>  <inchikey>  (212) 
OUQAMUZFPAKLSU-UHFFFAOYSA-N

>  <ref_pdb>  (212) 
A1180a

>  <alias>  (212) 
C46343-P371

>  <energy_score>  (212) 
-16.377525

>  <HIPPO Compound ID>  (212) 
16352

$$$$
C46353-P371
     RDKit          3D

 17 19  0  0  0  0  0  0  0  0999 V2000
    6.0347   10.4852   25.9013 C   0  0  0  0  0  0  0  0  0  0  0  0
    5.9115   11.8610   26.0977 C   0  0  0  0  0  0  0  0  0  0  0  0
    6.9387   12.7610   25.7456 C   0  0  0  0  0  0  0  0  0  0  0  0
    6.7655   14.2451   25.9804 C   0  0  0  0  0  0  0  0  0  0  0  0
    8.0217   14.8687   26.4230 N   0  0  0  0  0  0  0  0  0  0  0  0
    7.8254   16.1887   27.0534 C   0  0  2  0  0  0  0  0  0  0  0  0
    7.0402   17.2013   26.2180 C   0  0  0  0  0  0  0  0  0  0  0  0
    6.8619   18.5097   26.9964 C   0  0  0  0  0  0  0  0  0  0  0  0
    7.9174   18.7373   28.0821 C   0  0  0  0  0  0  0  0  0  0  0  0
    9.2371   18.2458   27.6888 N   0  0  0  0  0  0  0  0  0  0  0  0
    9.2158   16.7988   27.4090 C   0  0  0  0  0  0  0  0  0  0  0  0
    8.0805   12.1760   25.1675 C   0  0  0  0  0  0  0  0  0  0  0  0
    9.2429   12.7305   24.6909 N   0  0  0  0  0  0  0  0  0  0  0  0
   10.1838   11.8255   24.3531 N   0  0  0  0  0  0  0  0  0  0  0  0
    9.5359   10.6612   24.4549 C   0  0  0  0  0  0  0  0  0  0  0  0
    8.2354   10.8113   24.9780 C   0  0  0  0  0  0  0  0  0  0  0  0
    7.1910    9.9500   25.3295 C   0  0  0  0  0  0  0  0  0  0  0  0
  1  2  2  0
  2  3  1  0
  3  4  1  0
  4  5  1  0
  6  5  1  6
  6  7  1  0
  7  8  1  0
  8  9  1  0
  9 10  1  0
 10 11  1  0
  3 12  2  0
 12 13  1  0
 13 14  1  0
 14 15  2  0
 15 16  1  0
 16 17  2  0
 17  1  1  0
 11  6  1  0
 16 12  1  0
M  END
>  <tags>  (213) 
{'openbind_a71ev2a_c1_knitwork_pure', 'fragmenstein_placed'}

>  <distance_score>  (213) 
0.668707

>  <ref_mols>  (213) 
A4456a,A0497a

>  <smiles>  (213) 
c1cc(CN[C@@H]2CCCNC2)c2[nH]ncc2c1

>  <HIPPO Pose ID>  (213) 
211249

>  <inchikey>  (213) 
RUAMWEYLOLJYGA-UHFFFAOYSA-N

>  <ref_pdb>  (213) 
A1180a

>  <alias>  (213) 
C46353-P371

>  <energy_score>  (213) 
-32.559995

>  <HIPPO Compound ID>  (213) 
46353

$$$$
C13210-P291
     RDKit          3D

 13 13  0  0  0  0  0  0  0  0999 V2000
    5.5582   12.1381   27.1608 C   0  0  0  0  0  0  0  0  0  0  0  0
    6.1044   13.2434   26.2777 C   0  0  0  0  0  0  0  0  0  0  0  0
    7.1486   12.7166   25.3060 C   0  0  0  0  0  0  0  0  0  0  0  0
    7.8151   14.0396   24.3130 S   0  0  0  0  0  0  0  0  0  0  0  0
    8.4350   14.9902   25.2114 O   0  0  0  0  0  0  0  0  0  0  0  0
    6.8223   14.4053   23.3260 O   0  0  0  0  0  0  0  0  0  0  0  0
    9.0245   13.1655   23.4844 N   0  0  0  0  0  0  0  0  0  0  0  0
    9.9095   13.9830   22.7647 N   0  0  0  0  0  0  0  0  0  0  0  0
   10.9160   14.6589   23.5771 C   0  0  0  0  0  0  0  0  0  0  0  0
   12.0632   15.0336   22.6578 C   0  0  0  0  0  0  0  0  0  0  0  0
   11.6088   15.9687   21.5467 C   0  0  0  0  0  0  0  0  0  0  0  0
   10.4420   15.3523   20.7818 C   0  0  0  0  0  0  0  0  0  0  0  0
    9.3414   14.8641   21.7291 C   0  0  0  0  0  0  0  0  0  0  0  0
  1  2  1  0
  2  3  1  0
  3  4  1  0
  4  5  2  0
  4  6  2  0
  4  7  1  0
  7  8  1  0
  8  9  1  0
  9 10  1  0
 10 11  1  0
 11 12  1  0
 12 13  1  0
 13  8  1  0
M  END
>  <tags>  (214) 
{'openbind_a71ev2a_c1_knitwork_pure', 'fragmenstein_placed'}

>  <distance_score>  (214) 
0.912995

>  <ref_mols>  (214) 
A4308a,A0719a

>  <smiles>  (214) 
CCCS(=O)(=O)NN1CCCCC1

>  <HIPPO Pose ID>  (214) 
213552

>  <inchikey>  (214) 
NZLKTHSNCGTXSD-UHFFFAOYSA-N

>  <ref_pdb>  (214) 
A1180a

>  <alias>  (214) 
C13210-P291

>  <energy_score>  (214) 
-35.375682

>  <HIPPO Compound ID>  (214) 
48069

$$$$
C64564-P152
     RDKit          3D

 20 21  0  0  0  0  0  0  0  0999 V2000
    9.9546   11.3301   23.3776 N   0  0  0  0  0  0  0  0  0  0  0  0
    9.0058   10.9246   24.2335 C   0  0  0  0  0  0  0  0  0  0  0  0
    8.0927   11.6209   24.9785 C   0  0  0  0  0  0  0  0  0  0  0  0
    7.3541   10.6366   25.6862 C   0  0  0  0  0  0  0  0  0  0  0  0
    6.1810   10.8695   26.5587 C   0  0  0  0  0  0  0  0  0  0  0  0
    5.7910   11.9460   26.7650 O   0  0  0  0  0  0  0  0  0  0  0  0
    5.6130    9.5112   26.9768 N   0  0  0  0  0  0  0  0  0  0  0  0
    4.4826    9.1820   27.8277 C   0  0  2  0  0  0  0  0  0  0  0  0
    4.8812    8.7960   29.2458 C   0  0  0  0  0  0  0  0  0  0  0  0
    3.9323    8.2748   30.1287 C   0  0  0  0  0  0  0  0  0  0  0  0
    4.3055    7.9932   31.4420 C   0  0  0  0  0  0  0  0  0  0  0  0
    5.6031    8.2559   31.8570 C   0  0  0  0  0  0  0  0  0  0  0  0
    6.4826    8.7919   30.9359 C   0  0  0  0  0  0  0  0  0  0  0  0
    6.1561    9.0654   29.6541 N   0  0  0  0  0  0  0  0  0  0  0  0
    3.5096    8.1885   27.1691 C   0  0  0  0  0  0  0  0  0  0  0  0
    3.5288    8.2702   25.8116 F   0  0  0  0  0  0  0  0  0  0  0  0
    3.7539    6.8989   27.4758 F   0  0  0  0  0  0  0  0  0  0  0  0
    2.2304    8.4589   27.5398 F   0  0  0  0  0  0  0  0  0  0  0  0
    7.8128    9.3929   25.4208 N   0  0  0  0  0  0  0  0  0  0  0  0
    8.8006    9.6048   24.5220 N   0  0  0  0  0  0  0  0  0  0  0  0
  1  2  1  0
  2  3  2  0
  3  4  1  0
  4  5  1  0
  5  6  2  0
  5  7  1  0
  8  7  1  6
  8  9  1  0
  9 10  2  0
 10 11  1  0
 11 12  2  0
 12 13  1  0
 13 14  2  0
  8 15  1  0
 15 16  1  0
 15 17  1  0
 15 18  1  0
  4 19  2  0
 19 20  1  0
 20  2  1  0
 14  9  1  0
M  END
>  <tags>  (215) 
{'openbind_a71ev2a_c1_knitwork_pure', 'fragmenstein_placed'}

>  <distance_score>  (215) 
0.992084

>  <ref_mols>  (215) 
A3201a,A0556a

>  <smiles>  (215) 
Nc1cc(C(=O)N[C@H](c2ccccn2)C(F)(F)F)n[nH]1

>  <HIPPO Pose ID>  (215) 
213669

>  <inchikey>  (215) 
RQFUKMGDFNPBCK-UHFFFAOYSA-N

>  <ref_pdb>  (215) 
A1180a

>  <alias>  (215) 
C64564-P152

>  <energy_score>  (215) 
-22.463282

>  <HIPPO Compound ID>  (215) 
54393

$$$$
C51867-P219
     RDKit          3D

 12 12  0  0  0  0  0  0  0  0999 V2000
   14.0062   17.0552   19.3936 C   0  0  0  0  0  0  0  0  0  0  0  0
   13.2431   16.2393   20.3927 C   0  0  0  0  0  0  0  0  0  0  0  0
   12.1759   15.4606   19.9729 C   0  0  0  0  0  0  0  0  0  0  0  0
   11.4629   14.7537   20.9317 C   0  0  0  0  0  0  0  0  0  0  0  0
   10.3869   14.0293   20.5283 O   0  0  0  0  0  0  0  0  0  0  0  0
   11.8059   14.7893   22.2720 C   0  0  0  0  0  0  0  0  0  0  0  0
   11.0671   14.0885   23.3834 C   0  0  2  0  0  0  0  0  0  0  0  0
   11.9271   13.0418   24.0651 C   0  0  0  0  0  0  0  0  0  0  0  0
    9.6934   13.5206   23.0793 C   0  0  0  0  0  0  0  0  0  0  0  0
    9.2566   12.4655   23.5444 O   0  0  0  0  0  0  0  0  0  0  0  0
   12.9154   15.5750   22.5771 C   0  0  0  0  0  0  0  0  0  0  0  0
   13.6194   16.3106   21.6897 N   0  0  0  0  0  0  0  0  0  0  0  0
  1  2  1  0
  2  3  2  0
  3  4  1  0
  4  5  1  0
  4  6  2  0
  6  7  1  0
  7  8  1  6
  7  9  1  0
  9 10  2  0
  6 11  1  0
 11 12  2  0
 12  2  1  0
M  END
>  <tags>  (216) 
{'openbind_a71ev2a_c1_knitwork_pure', 'fragmenstein_placed'}

>  <distance_score>  (216) 
0.925764

>  <ref_mols>  (216) 
A3564a,A4874a

>  <smiles>  (216) 
Cc1cc(O)c([C@H](C)C=O)cn1

>  <HIPPO Pose ID>  (216) 
213949

>  <inchikey>  (216) 
AKDZJBVQXJPRAV-UHFFFAOYSA-N

>  <ref_pdb>  (216) 
A1180a

>  <alias>  (216) 
C51867-P219

>  <energy_score>  (216) 
-17.066175

>  <HIPPO Compound ID>  (216) 
62954

$$$$
C43441-P128
     RDKit          3D

 18 20  0  0  0  0  0  0  0  0999 V2000
    5.4446   12.7660   26.4721 O   0  0  0  0  0  0  0  0  0  0  0  0
    6.3984   11.6831   26.5670 S   0  0  0  0  0  0  0  0  0  0  0  0
    6.1708   10.3479   26.0629 O   0  0  0  0  0  0  0  0  0  0  0  0
    6.4218   11.4321   28.2731 C   0  0  0  0  0  0  0  0  0  0  0  0
    6.0481   10.2506   28.9305 C   0  0  0  0  0  0  0  0  0  0  0  0
    6.2164   10.3443   30.2541 N   0  0  0  0  0  0  0  0  0  0  0  0
    6.6161   11.6152   30.4420 N   0  0  0  0  0  0  0  0  0  0  0  0
    6.7858   12.3068   29.2754 C   0  0  0  0  0  0  0  0  0  0  0  0
    7.9479   12.2431   26.1569 N   0  0  0  0  0  0  0  0  0  0  0  0
    8.0964   13.7179   26.0728 C   0  0  0  0  0  0  0  0  0  0  0  0
    9.3474   14.0117   25.2492 C   0  0  0  0  0  0  0  0  0  0  0  0
    9.4476   12.7484   24.4752 C   0  0  0  0  0  0  0  0  0  0  0  0
   10.2514   12.5282   23.3868 C   0  0  0  0  0  0  0  0  0  0  0  0
   10.2553   11.2427   22.8860 C   0  0  0  0  0  0  0  0  0  0  0  0
    9.5518   10.2075   23.5052 C   0  0  0  0  0  0  0  0  0  0  0  0
    9.7846    8.4591   22.9070 Br  0  0  0  0  0  0  0  0  0  0  0  0
    8.7172   10.4442   24.5793 C   0  0  0  0  0  0  0  0  0  0  0  0
    8.6376   11.7393   25.0211 C   0  0  0  0  0  0  0  0  0  0  0  0
  1  2  2  0
  2  3  2  0
  2  4  1  0
  4  5  1  0
  5  6  2  0
  6  7  1  0
  7  8  1  0
  2  9  1  0
  9 10  1  0
 10 11  1  0
 11 12  1  0
 12 13  2  0
 13 14  1  0
 14 15  2  0
 15 16  1  0
 15 17  1  0
 17 18  2  0
  8  4  2  0
 18  9  1  0
 18 12  1  0
M  END
>  <tags>  (217) 
{'openbind_a71ev2a_c1_knitwork_pure', 'fragmenstein_placed'}

>  <distance_score>  (217) 
0.87101

>  <ref_mols>  (217) 
A2304a,A1778a

>  <smiles>  (217) 
O=S(=O)(c1cn[nH]c1)N1CCc2ccc(Br)cc21

>  <HIPPO Pose ID>  (217) 
214211

>  <inchikey>  (217) 
ACNOULRBXOAPRM-UHFFFAOYSA-N

>  <ref_pdb>  (217) 
A1180a

>  <alias>  (217) 
C43441-P128

>  <energy_score>  (217) 
-36.546706

>  <HIPPO Compound ID>  (217) 
62780

$$$$
C60693-P128
     RDKit          3D

 18 20  0  0  0  0  0  0  0  0999 V2000
    9.6217    8.5205   23.2078 C   0  0  0  0  0  0  0  0  0  0  0  0
    9.4840    9.9643   23.5499 C   0  0  0  0  0  0  0  0  0  0  0  0
   10.1825   10.9113   22.7982 C   0  0  0  0  0  0  0  0  0  0  0  0
   10.2624   12.2451   23.1572 C   0  0  0  0  0  0  0  0  0  0  0  0
    9.5225   12.6279   24.2446 C   0  0  0  0  0  0  0  0  0  0  0  0
    8.6831   11.7284   24.9152 C   0  0  0  0  0  0  0  0  0  0  0  0
    8.6851   10.3862   24.6065 C   0  0  0  0  0  0  0  0  0  0  0  0
    8.0659   12.3916   26.0106 N   0  0  0  0  0  0  0  0  0  0  0  0
    6.5407   11.9420   26.5856 S   0  0  0  0  0  0  0  0  0  0  0  0
    5.5948   13.0154   26.3801 O   0  0  0  0  0  0  0  0  0  0  0  0
    6.2599   10.5504   26.3118 O   0  0  0  0  0  0  0  0  0  0  0  0
    6.6651   11.9636   28.3093 C   0  0  0  0  0  0  0  0  0  0  0  0
    6.2200   10.9511   29.1722 C   0  0  0  0  0  0  0  0  0  0  0  0
    6.4865   11.2343   30.4522 N   0  0  0  0  0  0  0  0  0  0  0  0
    7.0322   12.4635   30.4085 N   0  0  0  0  0  0  0  0  0  0  0  0
    7.1888   12.9374   29.1350 C   0  0  0  0  0  0  0  0  0  0  0  0
    8.2898   13.8420   25.7720 C   0  0  0  0  0  0  0  0  0  0  0  0
    9.5298   13.9652   24.8928 C   0  0  0  0  0  0  0  0  0  0  0  0
  1  2  1  0
  2  3  2  0
  3  4  1  0
  4  5  2  0
  5  6  1  0
  6  7  2  0
  6  8  1  0
  8  9  1  0
  9 10  2  0
  9 11  2  0
  9 12  1  0
 12 13  1  0
 13 14  2  0
 14 15  1  0
 15 16  1  0
  8 17  1  0
 17 18  1  0
  7  2  1  0
 16 12  2  0
 18  5  1  0
M  END
>  <tags>  (218) 
{'openbind_a71ev2a_c1_knitwork_pure', 'fragmenstein_placed'}

>  <distance_score>  (218) 
0.812121

>  <ref_mols>  (218) 
A2304a,A1778a

>  <smiles>  (218) 
Cc1ccc2c(c1)N(S(=O)(=O)c1cn[nH]c1)CC2

>  <HIPPO Pose ID>  (218) 
214224

>  <inchikey>  (218) 
TVPOKXROJNSOOF-UHFFFAOYSA-N

>  <ref_pdb>  (218) 
A1180a

>  <alias>  (218) 
C60693-P128

>  <energy_score>  (218) 
-32.341412

>  <HIPPO Compound ID>  (218) 
47626

$$$$
C60696-P128
     RDKit          3D

 23 25  0  0  0  0  0  0  0  0999 V2000
    8.9201    7.2766   20.0336 C   0  0  0  0  0  0  0  0  0  0  0  0
    8.7611    7.3398   21.5781 C   0  0  0  0  0  0  0  0  0  0  0  0
    9.4648    8.5770   21.9768 N   0  0  0  0  0  0  0  0  0  0  0  0
    9.8287    8.7570   23.5474 S   0  0  0  0  0  0  0  0  0  0  0  0
    8.7792    8.2006   24.3550 O   0  0  0  0  0  0  0  0  0  0  0  0
   11.2216    8.4221   23.6467 O   0  0  0  0  0  0  0  0  0  0  0  0
    9.6469   10.4721   23.7012 C   0  0  0  0  0  0  0  0  0  0  0  0
   10.3603   11.3620   22.8973 C   0  0  0  0  0  0  0  0  0  0  0  0
   10.4552   12.6934   23.2318 C   0  0  0  0  0  0  0  0  0  0  0  0
    9.7279   13.0815   24.3254 C   0  0  0  0  0  0  0  0  0  0  0  0
    8.8549   12.2102   24.9939 C   0  0  0  0  0  0  0  0  0  0  0  0
    8.8296   10.8896   24.7230 C   0  0  0  0  0  0  0  0  0  0  0  0
    8.2513   12.8470   26.0960 N   0  0  0  0  0  0  0  0  0  0  0  0
    6.7062   12.3724   26.6216 S   0  0  0  0  0  0  0  0  0  0  0  0
    5.7098   13.3016   26.1472 O   0  0  0  0  0  0  0  0  0  0  0  0
    6.5446   10.9362   26.5728 O   0  0  0  0  0  0  0  0  0  0  0  0
    6.6442   12.6689   28.3156 C   0  0  0  0  0  0  0  0  0  0  0  0
    7.5899   13.3577   29.0784 C   0  0  0  0  0  0  0  0  0  0  0  0
    7.2346   13.4447   30.3598 N   0  0  0  0  0  0  0  0  0  0  0  0
    6.0638   12.7836   30.4190 N   0  0  0  0  0  0  0  0  0  0  0  0
    5.6581   12.3060   29.2075 C   0  0  0  0  0  0  0  0  0  0  0  0
    8.5051   14.2764   25.8311 C   0  0  0  0  0  0  0  0  0  0  0  0
    9.7840   14.3920   25.0115 C   0  0  0  0  0  0  0  0  0  0  0  0
  1  2  1  0
  2  3  1  0
  3  4  1  0
  4  5  2  0
  4  6  2  0
  4  7  1  0
  7  8  2  0
  8  9  1  0
  9 10  2  0
 10 11  1  0
 11 12  2  0
 11 13  1  0
 13 14  1  0
 14 15  2  0
 14 16  2  0
 14 17  1  0
 17 18  1  0
 18 19  2  0
 19 20  1  0
 20 21  1  0
 13 22  1  0
 22 23  1  0
 12  7  1  0
 21 17  2  0
 23 10  1  0
M  END
>  <tags>  (219) 
{'openbind_a71ev2a_c1_knitwork_pure', 'fragmenstein_placed'}

>  <distance_score>  (219) 
0.98289

>  <ref_mols>  (219) 
A2304a,A1778a

>  <smiles>  (219) 
CCNS(=O)(=O)c1ccc2c(c1)N(S(=O)(=O)c1cn[nH]c1)CC2

>  <HIPPO Pose ID>  (219) 
214226

>  <inchikey>  (219) 
PBRDYGOIOPNLNB-UHFFFAOYSA-N

>  <ref_pdb>  (219) 
A1180a

>  <alias>  (219) 
C60696-P128

>  <energy_score>  (219) 
-228.084576

>  <HIPPO Compound ID>  (219) 
60696

$$$$
C60700-P128
     RDKit          3D

 18 20  0  0  0  0  0  0  0  0999 V2000
    5.4677   12.7915   26.4531 O   0  0  0  0  0  0  0  0  0  0  0  0
    6.4034   11.6930   26.5506 S   0  0  0  0  0  0  0  0  0  0  0  0
    6.1443   10.3537   26.0740 O   0  0  0  0  0  0  0  0  0  0  0  0
    6.4503   11.4731   28.2603 C   0  0  0  0  0  0  0  0  0  0  0  0
    6.0776   10.3071   28.9454 C   0  0  0  0  0  0  0  0  0  0  0  0
    6.2657   10.4248   30.2644 N   0  0  0  0  0  0  0  0  0  0  0  0
    6.6753   11.6967   30.4227 N   0  0  0  0  0  0  0  0  0  0  0  0
    6.8343   12.3643   29.2405 C   0  0  0  0  0  0  0  0  0  0  0  0
    7.9545   12.2164   26.1035 N   0  0  0  0  0  0  0  0  0  0  0  0
    8.1251   13.6889   25.9740 C   0  0  0  0  0  0  0  0  0  0  0  0
    9.3726   13.9298   25.1281 C   0  0  0  0  0  0  0  0  0  0  0  0
    9.4500   12.6365   24.3991 C   0  0  0  0  0  0  0  0  0  0  0  0
   10.2380   12.3654   23.3106 C   0  0  0  0  0  0  0  0  0  0  0  0
   10.2111   11.0633   22.8482 C   0  0  0  0  0  0  0  0  0  0  0  0
    9.5021   10.0537   23.4991 C   0  0  0  0  0  0  0  0  0  0  0  0
    9.6728    8.4492   22.9511 Cl  0  0  0  0  0  0  0  0  0  0  0  0
    8.6871   10.3427   24.5778 C   0  0  0  0  0  0  0  0  0  0  0  0
    8.6316   11.6567   24.9834 C   0  0  0  0  0  0  0  0  0  0  0  0
  1  2  2  0
  2  3  2  0
  2  4  1  0
  4  5  1  0
  5  6  2  0
  6  7  1  0
  7  8  1  0
  2  9  1  0
  9 10  1  0
 10 11  1  0
 11 12  1  0
 12 13  2  0
 13 14  1  0
 14 15  2  0
 15 16  1  0
 15 17  1  0
 17 18  2  0
  8  4  2  0
 18  9  1  0
 18 12  1  0
M  END
>  <tags>  (220) 
{'openbind_a71ev2a_c1_knitwork_pure', 'fragmenstein_placed'}

>  <distance_score>  (220) 
0.847243

>  <ref_mols>  (220) 
A2304a,A1778a

>  <smiles>  (220) 
O=S(=O)(c1cn[nH]c1)N1CCc2ccc(Cl)cc21

>  <HIPPO Pose ID>  (220) 
214227

>  <inchikey>  (220) 
FLFOERJJQTUYPD-UHFFFAOYSA-N

>  <ref_pdb>  (220) 
A1180a

>  <alias>  (220) 
C60700-P128

>  <energy_score>  (220) 
-34.364293

>  <HIPPO Compound ID>  (220) 
48075

$$$$
C24948-P137
     RDKit          3D

 14 15  0  0  0  0  0  0  0  0999 V2000
   15.9318   12.7147    0.7898 C   0  0  0  0  0  0  0  0  0  0  0  0
   16.6312   14.0577    0.6254 C   0  0  2  0  0  0  0  0  0  0  0  0
   17.9822   13.9499   -0.0675 C   0  0  0  0  0  0  0  0  0  0  0  0
   18.9321   13.7234    1.0924 C   0  0  1  0  0  0  0  0  0  0  0  0
   20.3897   14.0637    0.7749 C   0  0  0  0  0  0  0  0  0  0  0  0
   21.2315   13.8541    1.9478 N   0  0  0  0  0  0  0  0  0  0  0  0
   22.6577   14.1289    1.7055 C   0  0  0  0  0  0  0  0  0  0  0  0
   22.9641   15.5993    1.6280 C   0  0  0  0  0  0  0  0  0  0  0  0
   22.1772   16.7099    1.8781 C   0  0  0  0  0  0  0  0  0  0  0  0
   22.9794   17.7923    1.6455 N   0  0  0  0  0  0  0  0  0  0  0  0
   24.2038   17.3228    1.2738 C   0  0  0  0  0  0  0  0  0  0  0  0
   24.2262   16.0117    1.2510 N   0  0  0  0  0  0  0  0  0  0  0  0
   18.3015   14.5895    2.1685 C   0  0  0  0  0  0  0  0  0  0  0  0
   16.8859   14.5993    1.9342 O   0  0  0  0  0  0  0  0  0  0  0  0
  2  1  1  1
  2  3  1  0
  3  4  1  0
  4  5  1  6
  5  6  1  0
  6  7  1  0
  7  8  1  0
  8  9  2  0
  9 10  1  0
 10 11  1  0
 11 12  2  0
  4 13  1  0
 13 14  1  0
 14  2  1  0
 12  8  1  0
M  END
>  <tags>  (221) 
{'openbind_a71ev2a_c1_knitwork_pure', 'fragmenstein_placed'}

>  <distance_score>  (221) 
0.899313

>  <ref_mols>  (221) 
A2972a,A0608a

>  <smiles>  (221) 
C[C@@H]1C[C@@H](CNCc2c[nH]cn2)CO1

>  <HIPPO Pose ID>  (221) 
214341

>  <inchikey>  (221) 
NVPORXZYZSHULI-UHFFFAOYSA-N

>  <ref_pdb>  (221) 
A1180a

>  <alias>  (221) 
C24948-P137

>  <energy_score>  (221) 
-36.171223

>  <HIPPO Compound ID>  (221) 
53748

$$$$
C54664-P384
     RDKit          3D

 22 25  0  0  0  0  0  0  0  0999 V2000
   25.4250   23.5176   11.2537 O   0  0  0  0  0  0  0  0  0  0  0  0
   24.6239   24.0098   12.0323 C   0  0  0  0  0  0  0  0  0  0  0  0
   24.9543   25.0770   13.0331 C   0  0  0  0  0  0  0  0  0  0  0  0
   23.6621   25.2651   13.8421 C   0  0  2  0  0  0  0  0  0  0  0  0
   23.7090   24.6115   15.1747 N   0  0  0  0  0  0  0  0  0  0  0  0
   24.7394   25.1861   16.0650 C   0  0  0  0  0  0  0  0  0  0  0  0
   24.5949   24.7191   17.5263 C   0  0  0  0  0  0  0  0  0  0  0  0
   23.9045   23.3478   17.5482 C   0  0  0  0  0  0  0  0  0  0  0  0
   24.0209   22.6441   18.8186 N   0  0  0  0  0  0  0  0  0  0  0  0
   22.9249   22.3222   19.5497 N   0  0  0  0  0  0  0  0  0  0  0  0
   23.4238   21.6099   20.5637 C   0  0  0  0  0  0  0  0  0  0  0  0
   24.8271   21.4829   20.5145 C   0  0  0  0  0  0  0  0  0  0  0  0
   25.8148   20.8581   21.2960 C   0  0  0  0  0  0  0  0  0  0  0  0
   27.1520   20.9488   20.8929 C   0  0  0  0  0  0  0  0  0  0  0  0
   27.5062   21.6365   19.7357 C   0  0  0  0  0  0  0  0  0  0  0  0
   26.5353   22.2494   18.9409 C   0  0  0  0  0  0  0  0  0  0  0  0
   25.1985   22.1678   19.3621 C   0  0  0  0  0  0  0  0  0  0  0  0
   22.4685   23.5566   17.0262 C   0  0  0  0  0  0  0  0  0  0  0  0
   22.4231   24.5833   15.8795 C   0  0  0  0  0  0  0  0  0  0  0  0
   22.6458   24.6000   12.9059 C   0  0  0  0  0  0  0  0  0  0  0  0
   21.4464   24.8372   12.8724 O   0  0  0  0  0  0  0  0  0  0  0  0
   23.2991   23.7447   12.0785 N   0  0  0  0  0  0  0  0  0  0  0  0
  1  2  2  0
  2  3  1  0
  3  4  1  0
  4  5  1  1
  5  6  1  0
  6  7  1  0
  7  8  1  0
  8  9  1  0
  9 10  1  0
 10 11  2  0
 11 12  1  0
 12 13  2  0
 13 14  1  0
 14 15  2  0
 15 16  1  0
 16 17  2  0
  8 18  1  0
 18 19  1  0
  4 20  1  0
 20 21  2  0
 20 22  1  0
 22  2  1  0
 19  5  1  0
 17  9  1  0
 17 12  1  0
M  END
>  <tags>  (222) 
{'openbind_a71ev2a_c1_knitwork_pure', 'fragmenstein_placed'}

>  <distance_score>  (222) 
0.683771

>  <ref_mols>  (222) 
A4509a,A3181b

>  <smiles>  (222) 
O=C1C[C@H](N2CCC(n3ncc4ccccc43)CC2)C(=O)N1

>  <HIPPO Pose ID>  (222) 
214807

>  <inchikey>  (222) 
HGBPIRBOCLLQLU-UHFFFAOYSA-N

>  <ref_pdb>  (222) 
A0309a

>  <alias>  (222) 
C54664-P384

>  <energy_score>  (222) 
-34.15504

>  <HIPPO Compound ID>  (222) 
54541

$$$$
C50895-P339
     RDKit          3D

 12 12  0  0  0  0  0  0  0  0999 V2000
    9.9651   12.3480   24.6780 C   0  0  0  0  0  0  0  0  0  0  0  0
    8.5732   12.3519   24.0702 C   0  0  2  0  0  0  0  0  0  0  0  0
    8.4006   13.5131   23.1133 C   0  0  0  0  0  0  0  0  0  0  0  0
    7.5742   13.4852   22.2030 O   0  0  0  0  0  0  0  0  0  0  0  0
    7.3800   12.3437   25.0492 C   0  0  1  0  0  0  0  0  0  0  0  0
    7.1919   10.9725   25.6964 C   0  0  0  0  0  0  0  0  0  0  0  0
    6.0767   10.9340   26.7499 C   0  0  0  0  0  0  0  0  0  0  0  0
    5.2928   12.1559   26.8902 N   0  0  0  0  0  0  0  0  0  0  0  0
    4.3524   12.0276   28.0040 C   0  0  0  0  0  0  0  0  0  0  0  0
    6.0620   13.4114   26.9443 C   0  0  2  0  0  0  0  0  0  0  0  0
    5.1839   14.5492   26.4010 C   0  0  0  0  0  0  0  0  0  0  0  0
    7.4051   13.3826   26.1659 C   0  0  0  0  0  0  0  0  0  0  0  0
  2  1  1  1
  2  3  1  0
  3  4  2  0
  2  5  1  0
  5  6  1  1
  6  7  1  0
  7  8  1  0
  8  9  1  0
  8 10  1  0
 10 11  1  6
 10 12  1  0
 12  5  1  0
M  END
>  <tags>  (223) 
{'openbind_a71ev2a_c1_knitwork_pure', 'fragmenstein_placed'}

>  <distance_score>  (223) 
0.975044

>  <ref_mols>  (223) 
A4237b,A4320a

>  <smiles>  (223) 
C[C@H](C=O)[C@H]1CCN(C)[C@H](C)C1

>  <HIPPO Pose ID>  (223) 
216434

>  <inchikey>  (223) 
KXNWFIJPGUQQKJ-UHFFFAOYSA-N

>  <ref_pdb>  (223) 
A0309a

>  <alias>  (223) 
C50895-P339

>  <energy_score>  (223) 
-21.344697

>  <HIPPO Compound ID>  (223) 
50895

$$$$
C45615-P339
     RDKit          3D

 18 20  0  0  0  0  0  0  0  0999 V2000
    8.7076   18.5963   27.3637 C   0  0  0  0  0  0  0  0  0  0  0  0
    7.9024   17.3948   27.2022 N   0  0  0  0  0  0  0  0  0  0  0  0
    8.6631   16.1850   27.5107 C   0  0  0  0  0  0  0  0  0  0  0  0
    7.7017   15.0012   27.5922 C   0  0  0  0  0  0  0  0  0  0  0  0
    6.8528   14.8092   26.3235 C   0  0  0  0  0  0  0  0  0  0  0  0
    7.6071   14.0302   25.2746 C   0  0  0  0  0  0  0  0  0  0  0  0
    8.2922   14.5735   24.2950 N   0  0  0  0  0  0  0  0  0  0  0  0
    8.9910   13.6158   23.5929 C   0  0  0  0  0  0  0  0  0  0  0  0
    9.9570   14.0766   22.5460 C   0  0  2  0  0  0  0  0  0  0  0  0
   11.1605   14.7873   23.1933 C   0  0  0  0  0  0  0  0  0  0  0  0
   11.8723   15.7225   22.2188 C   0  0  0  0  0  0  0  0  0  0  0  0
   11.6354   15.3095   20.7732 C   0  0  0  0  0  0  0  0  0  0  0  0
   10.2231   15.4065   20.4266 N   0  0  0  0  0  0  0  0  0  0  0  0
    9.3048   14.9767   21.4841 C   0  0  0  0  0  0  0  0  0  0  0  0
    8.7673   12.3191   24.0117 C   0  0  0  0  0  0  0  0  0  0  0  0
    7.6732   12.3084   25.3287 S   0  0  0  0  0  0  0  0  0  0  0  0
    6.3204   16.1516   25.7931 C   0  0  0  0  0  0  0  0  0  0  0  0
    7.3384   17.2946   25.8471 C   0  0  0  0  0  0  0  0  0  0  0  0
  1  2  1  0
  2  3  1  0
  3  4  1  0
  4  5  1  0
  5  6  1  0
  6  7  2  0
  7  8  1  0
  9  8  1  1
  9 10  1  0
 10 11  1  0
 11 12  1  0
 12 13  1  0
 13 14  1  0
  8 15  2  0
 15 16  1  0
  5 17  1  0
 17 18  1  0
 18  2  1  0
 16  6  1  0
 14  9  1  0
M  END
>  <tags>  (224) 
{'openbind_a71ev2a_c1_knitwork_pure', 'fragmenstein_placed'}

>  <distance_score>  (224) 
0.907268

>  <ref_mols>  (224) 
A4237b,A4320a

>  <smiles>  (224) 
CN1CCC(c2nc([C@@H]3CCCNC3)cs2)CC1

>  <HIPPO Pose ID>  (224) 
216456

>  <inchikey>  (224) 
YQYGMTNHNASFKA-UHFFFAOYSA-N

>  <ref_pdb>  (224) 
A0309a

>  <alias>  (224) 
C45615-P339

>  <energy_score>  (224) 
-83.547177

>  <HIPPO Compound ID>  (224) 
69436

$$$$
C55223-P339
     RDKit          3D

 17 18  0  0  0  0  0  0  0  0999 V2000
   10.9654   14.4392   23.2226 O   0  0  0  0  0  0  0  0  0  0  0  0
    9.8660   14.3827   22.6770 C   0  0  0  0  0  0  0  0  0  0  0  0
    8.6366   13.7875   23.3134 C   0  0  0  0  0  0  0  0  0  0  0  0
    8.9899   13.0043   24.5757 C   0  0  0  0  0  0  0  0  0  0  0  0
    7.7871   12.7015   25.4407 C   0  0  0  0  0  0  0  0  0  0  0  0
    7.3403   11.3773   25.5536 C   0  0  0  0  0  0  0  0  0  0  0  0
    6.2356   11.0850   26.3448 C   0  0  0  0  0  0  0  0  0  0  0  0
    5.8162    9.8205   26.4499 F   0  0  0  0  0  0  0  0  0  0  0  0
    5.5543   12.0771   27.0288 C   0  0  0  0  0  0  0  0  0  0  0  0
    5.9934   13.3939   26.9309 C   0  0  0  0  0  0  0  0  0  0  0  0
    7.1144   13.7278   26.1495 C   0  0  0  0  0  0  0  0  0  0  0  0
    7.6249   15.0473   26.1134 N   0  0  0  0  0  0  0  0  0  0  0  0
    6.6139   16.0838   25.8321 C   0  0  0  0  0  0  0  0  0  0  0  0
    7.3101   17.4270   25.6219 C   0  0  0  0  0  0  0  0  0  0  0  0
    8.1761   17.7875   26.8268 C   0  0  0  0  0  0  0  0  0  0  0  0
    9.1642   16.6661   27.1326 C   0  0  0  0  0  0  0  0  0  0  0  0
    8.4431   15.3306   27.3071 C   0  0  0  0  0  0  0  0  0  0  0  0
  1  2  2  0
  2  3  1  0
  3  4  1  0
  4  5  1  0
  5  6  2  0
  6  7  1  0
  7  8  1  0
  7  9  2  0
  9 10  1  0
 10 11  2  0
 11 12  1  0
 12 13  1  0
 13 14  1  0
 14 15  1  0
 15 16  1  0
 16 17  1  0
 11  5  1  0
 17 12  1  0
M  END
>  <tags>  (225) 
{'openbind_a71ev2a_c1_knitwork_pure', 'fragmenstein_placed'}

>  <distance_score>  (225) 
0.687849

>  <ref_mols>  (225) 
A4237b,A4320a

>  <smiles>  (225) 
O=CCCc1cc(F)ccc1N1CCCCC1

>  <HIPPO Pose ID>  (225) 
216470

>  <inchikey>  (225) 
SZOSSGYASKCMRR-UHFFFAOYSA-N

>  <ref_pdb>  (225) 
A0309a

>  <alias>  (225) 
C55223-P339

>  <energy_score>  (225) 
-42.865404

>  <HIPPO Compound ID>  (225) 
46719

$$$$
C51875-P363
     RDKit          3D

 13 13  0  0  0  0  0  0  0  0999 V2000
    9.7297    9.2670   23.1631 C   0  0  0  0  0  0  0  0  0  0  0  0
    9.9486   10.6478   22.9800 O   0  0  0  0  0  0  0  0  0  0  0  0
    9.3936   11.4305   23.9566 C   0  0  0  0  0  0  0  0  0  0  0  0
    8.4464   10.8905   24.7596 N   0  0  0  0  0  0  0  0  0  0  0  0
    7.8204   11.7248   25.6095 C   0  0  0  0  0  0  0  0  0  0  0  0
    8.1038   13.0819   25.7246 C   0  0  0  0  0  0  0  0  0  0  0  0
    7.3717   13.9845   26.6940 C   0  0  2  0  0  0  0  0  0  0  0  0
    5.9921   13.4985   27.1408 C   0  0  0  0  0  0  0  0  0  0  0  0
    7.1943   15.3787   26.1364 C   0  0  0  0  0  0  0  0  0  0  0  0
    7.7667   16.3583   26.6061 O   0  0  0  0  0  0  0  0  0  0  0  0
    9.1431   13.5833   24.9229 C   0  0  0  0  0  0  0  0  0  0  0  0
    9.7792   12.7596   24.0045 C   0  0  0  0  0  0  0  0  0  0  0  0
   10.9839   13.4179   22.9727 Cl  0  0  0  0  0  0  0  0  0  0  0  0
  1  2  1  0
  2  3  1  0
  3  4  2  0
  4  5  1  0
  5  6  2  0
  6  7  1  0
  7  8  1  6
  7  9  1  0
  9 10  2  0
  6 11  1  0
 11 12  2  0
 12 13  1  0
 12  3  1  0
M  END
>  <tags>  (226) 
{'openbind_a71ev2a_c1_knitwork_pure', 'fragmenstein_placed'}

>  <distance_score>  (226) 
0.796426

>  <ref_mols>  (226) 
A4445a,A2629a

>  <smiles>  (226) 
COc1ncc([C@H](C)C=O)cc1Cl

>  <HIPPO Pose ID>  (226) 
217787

>  <inchikey>  (226) 
KLDGENGYOLDCCH-UHFFFAOYSA-N

>  <ref_pdb>  (226) 
A0514b

>  <alias>  (226) 
C51875-P363

>  <energy_score>  (226) 
-7.616727

>  <HIPPO Compound ID>  (226) 
7530

$$$$
C75223-P136
     RDKit          3D

 14 15  0  0  0  0  0  0  0  0999 V2000
   22.8134   11.5574   -4.9364 C   0  0  0  0  0  0  0  0  0  0  0  0
   22.0731   12.3600   -3.8839 C   0  0  2  0  0  0  0  0  0  0  0  0
   22.9953   13.0749   -2.9088 C   0  0  0  0  0  0  0  0  0  0  0  0
   22.1161   13.1683   -1.6765 C   0  0  2  0  0  0  0  0  0  0  0  0
   22.8891   13.4666   -0.3948 C   0  0  0  0  0  0  0  0  0  0  0  0
   21.9824   13.6007    0.7536 N   0  0  0  0  0  0  0  0  0  0  0  0
   22.7093   14.0780    1.9424 C   0  0  0  0  0  0  0  0  0  0  0  0
   22.9798   15.5423    1.8262 C   0  0  0  0  0  0  0  0  0  0  0  0
   22.0935   16.5952    1.8984 C   0  0  0  0  0  0  0  0  0  0  0  0
   22.7831   17.7519    1.7039 O   0  0  0  0  0  0  0  0  0  0  0  0
   24.0654   17.3353    1.5157 C   0  0  0  0  0  0  0  0  0  0  0  0
   24.2412   16.0346    1.5640 N   0  0  0  0  0  0  0  0  0  0  0  0
   21.4369   11.8121   -1.7083 C   0  0  0  0  0  0  0  0  0  0  0  0
   21.2461   11.4855   -3.0967 O   0  0  0  0  0  0  0  0  0  0  0  0
  2  1  1  6
  2  3  1  0
  3  4  1  0
  4  5  1  1
  5  6  1  0
  6  7  1  0
  7  8  1  0
  8  9  2  0
  9 10  1  0
 10 11  1  0
 11 12  2  0
  4 13  1  0
 13 14  1  0
 14  2  1  0
 12  8  1  0
M  END
>  <tags>  (227) 
{'openbind_a71ev2a_c1_knitwork_pure', 'fragmenstein_placed'}

>  <distance_score>  (227) 
0.940939

>  <ref_mols>  (227) 
A2846a,A0608a

>  <smiles>  (227) 
C[C@@H]1C[C@H](CNCc2cocn2)CO1

>  <HIPPO Pose ID>  (227) 
218145

>  <inchikey>  (227) 
UQSQEAQGOCUNCL-UHFFFAOYSA-N

>  <ref_pdb>  (227) 
A0514b

>  <alias>  (227) 
C75223-P136

>  <energy_score>  (227) 
-38.84076

>  <HIPPO Compound ID>  (227) 
9170

$$$$
C55392-P183
     RDKit          3D

 17 17  0  0  0  0  0  0  0  0999 V2000
   11.2504   14.2325   22.4574 C   0  0  0  0  0  0  0  0  0  0  0  0
    9.8980   13.6730   22.8888 C   0  0  0  0  0  0  0  0  0  0  0  0
   10.0575   12.6349   23.9889 C   0  0  0  0  0  0  0  0  0  0  0  0
    8.8131   11.9756   24.5324 C   0  0  0  0  0  0  0  0  0  0  0  0
    8.7123   10.6429   24.4781 N   0  0  0  0  0  0  0  0  0  0  0  0
    7.6447   10.3485   25.2237 N   0  0  0  0  0  0  0  0  0  0  0  0
    6.9979   11.4244   25.7721 C   0  0  0  0  0  0  0  0  0  0  0  0
    5.7796   11.4125   26.5955 C   0  0  0  0  0  0  0  0  0  0  0  0
    5.2066   12.4183   26.7172 O   0  0  0  0  0  0  0  0  0  0  0  0
    5.4942   10.0209   27.1974 N   0  0  0  0  0  0  0  0  0  0  0  0
    4.3877    9.5553   28.0002 C   0  0  0  0  0  0  0  0  0  0  0  0
    4.8070    8.9134   29.2980 C   0  0  0  0  0  0  0  0  0  0  0  0
    7.7369   12.5095   25.2909 C   0  0  0  0  0  0  0  0  0  0  0  0
    7.5223   14.1898   25.5456 S   0  0  0  0  0  0  0  0  0  0  0  0
    6.5053   14.5678   26.8173 N   0  0  0  0  0  0  0  0  0  0  0  0
    6.8886   14.6652   24.3415 O   0  0  0  0  0  0  0  0  0  0  0  0
    8.8324   14.6537   25.9515 O   0  0  0  0  0  0  0  0  0  0  0  0
  1  2  1  0
  2  3  1  0
  3  4  1  0
  4  5  2  0
  5  6  1  0
  6  7  1  0
  7  8  1  0
  8  9  2  0
  8 10  1  0
 10 11  1  0
 11 12  1  0
  7 13  2  0
 13 14  1  0
 14 15  1  0
 14 16  2  0
 14 17  2  0
 13  4  1  0
M  END
>  <tags>  (228) 
{'openbind_a71ev2a_c1_knitwork_pure', 'fragmenstein_placed'}

>  <distance_score>  (228) 
0.937397

>  <ref_mols>  (228) 
A0556a,A3436a

>  <smiles>  (228) 
CCCc1n[nH]c(C(=O)NCC)c1S(N)(=O)=O

>  <HIPPO Pose ID>  (228) 
220163

>  <inchikey>  (228) 
CPYSPBMOERNONI-UHFFFAOYSA-N

>  <ref_pdb>  (228) 
A0514b

>  <alias>  (228) 
C55392-P183

>  <energy_score>  (228) 
-25.581602

>  <HIPPO Compound ID>  (228) 
72020

$$$$
C48157-P405
     RDKit          3D

 11 11  0  0  0  0  0  0  0  0999 V2000
    8.2450   14.9673   25.4861 C   0  0  0  0  0  0  0  0  0  0  0  0
    7.5931   13.9708   24.5450 C   0  0  1  0  0  0  0  0  0  0  0  0
    7.9443   14.2227   23.0897 C   0  0  0  0  0  0  0  0  0  0  0  0
    7.4838   13.5437   22.1713 O   0  0  0  0  0  0  0  0  0  0  0  0
    7.8531   12.5432   24.9017 C   0  0  0  0  0  0  0  0  0  0  0  0
    6.9782   11.6350   25.5306 C   0  0  0  0  0  0  0  0  0  0  0  0
    5.3953   12.1708   26.3934 Br  0  0  0  0  0  0  0  0  0  0  0  0
    7.4389   10.3839   25.5685 N   0  0  0  0  0  0  0  0  0  0  0  0
    8.6827   10.5028   25.0536 N   0  0  0  0  0  0  0  0  0  0  0  0
    8.9993   11.7953   24.7570 C   0  0  0  0  0  0  0  0  0  0  0  0
   10.7155   12.4647   24.3409 Br  0  0  0  0  0  0  0  0  0  0  0  0
  2  1  1  1
  2  3  1  0
  3  4  2  0
  2  5  1  0
  5  6  1  0
  6  7  1  0
  6  8  2  0
  8  9  1  0
  9 10  1  0
 10 11  1  0
 10  5  2  0
M  END
>  <tags>  (229) 
{'openbind_a71ev2a_c1_knitwork_pure', 'fragmenstein_placed'}

>  <distance_score>  (229) 
0.79667

>  <ref_mols>  (229) 
A0556a,A4570a

>  <smiles>  (229) 
C[C@@H](C=O)c1c(Br)n[nH]c1Br

>  <HIPPO Pose ID>  (229) 
220515

>  <inchikey>  (229) 
JGPKGUGWSKQTMA-UHFFFAOYSA-N

>  <ref_pdb>  (229) 
A0514b

>  <alias>  (229) 
C48157-P405

>  <energy_score>  (229) 
-12.406749

>  <HIPPO Compound ID>  (229) 
76437

$$$$
C9559-P391
     RDKit          3D

  9  9  0  0  0  0  0  0  0  0999 V2000
    7.1649   11.4560   25.1406 O   0  0  0  0  0  0  0  0  0  0  0  0
    7.2055   12.6723   24.9843 C   0  0  0  0  0  0  0  0  0  0  0  0
    8.4722   13.3892   24.6393 C   0  0  0  0  0  0  0  0  0  0  0  0
    8.2214   14.3879   23.5253 C   0  0  0  0  0  0  0  0  0  0  0  0
    9.4639   14.8179   22.9151 N   0  0  0  0  0  0  0  0  0  0  0  0
   10.5293   15.4094   23.5323 C   0  0  0  0  0  0  0  0  0  0  0  0
   11.5235   15.4673   22.5835 C   0  0  0  0  0  0  0  0  0  0  0  0
   10.9426   14.9319   21.4204 C   0  0  0  0  0  0  0  0  0  0  0  0
    9.6788   14.5497   21.6210 N   0  0  0  0  0  0  0  0  0  0  0  0
  1  2  2  0
  2  3  1  0
  3  4  1  0
  4  5  1  0
  5  6  1  0
  6  7  2  0
  7  8  1  0
  8  9  2  0
  9  5  1  0
M  END
>  <tags>  (230) 
{'openbind_a71ev2a_c1_knitwork_pure', 'fragmenstein_placed'}

>  <distance_score>  (230) 
0.824928

>  <ref_mols>  (230) 
A0556a,A4526a

>  <smiles>  (230) 
O=CCCn1cccn1

>  <HIPPO Pose ID>  (230) 
223016

>  <inchikey>  (230) 
BERWHPCSSUZEII-UHFFFAOYSA-N

>  <ref_pdb>  (230) 
A0514b

>  <alias>  (230) 
C9559-P391

>  <energy_score>  (230) 
-13.047533

>  <HIPPO Compound ID>  (230) 
9559

$$$$
C65388-P220
     RDKit          3D

 20 21  0  0  0  0  0  0  0  0999 V2000
   10.4812   13.9027   25.3158 O   0  0  0  0  0  0  0  0  0  0  0  0
   10.3243   13.3663   24.2945 C   0  0  0  0  0  0  0  0  0  0  0  0
   11.0826   13.5090   22.9703 N   0  0  0  0  0  0  0  0  0  0  0  0
   12.1306   14.4051   22.5914 C   0  0  0  0  0  0  0  0  0  0  0  0
   12.3194   14.5755   21.1005 C   0  0  0  0  0  0  0  0  0  0  0  0
   11.2031   15.1987   20.4455 N   0  0  0  0  0  0  0  0  0  0  0  0
   10.8496   15.0383   19.1511 C   0  0  0  0  0  0  0  0  0  0  0  0
    9.6658   15.7135   19.0264 C   0  0  0  0  0  0  0  0  0  0  0  0
    9.4688   16.3685   20.2475 C   0  0  0  0  0  0  0  0  0  0  0  0
   10.3986   16.0184   21.1249 N   0  0  0  0  0  0  0  0  0  0  0  0
    9.2958   12.2902   24.2433 C   0  0  0  0  0  0  0  0  0  0  0  0
    9.4651   11.1691   23.4473 C   0  0  0  0  0  0  0  0  0  0  0  0
    8.5548   10.1560   23.5656 C   0  0  0  0  0  0  0  0  0  0  0  0
    7.5387   10.1570   24.4460 N   0  0  0  0  0  0  0  0  0  0  0  0
    7.3757   11.2436   25.2449 C   0  0  0  0  0  0  0  0  0  0  0  0
    6.2911   11.2394   26.3141 C   0  0  0  0  0  0  0  0  0  0  0  0
    6.2963   12.3884   27.0584 F   0  0  0  0  0  0  0  0  0  0  0  0
    5.0247   11.1408   25.8459 F   0  0  0  0  0  0  0  0  0  0  0  0
    6.4287   10.2521   27.2447 F   0  0  0  0  0  0  0  0  0  0  0  0
    8.2273   12.3398   25.1410 C   0  0  0  0  0  0  0  0  0  0  0  0
  1  2  2  0
  2  3  1  0
  3  4  1  0
  4  5  1  0
  5  6  1  0
  6  7  1  0
  7  8  2  0
  8  9  1  0
  9 10  2  0
  2 11  1  0
 11 12  2  0
 12 13  1  0
 13 14  2  0
 14 15  1  0
 15 16  1  0
 16 17  1  0
 16 18  1  0
 16 19  1  0
 15 20  2  0
 10  6  1  0
 20 11  1  0
M  END
>  <tags>  (231) 
{'openbind_a71ev2a_c1_knitwork_pure', 'fragmenstein_placed'}

>  <distance_score>  (231) 
0.803491

>  <ref_mols>  (231) 
A3568a,A0556a

>  <smiles>  (231) 
O=C(NCCn1cccn1)c1ccnc(C(F)(F)F)c1

>  <HIPPO Pose ID>  (231) 
223425

>  <inchikey>  (231) 
BRPFDWXEIDBRLV-UHFFFAOYSA-N

>  <ref_pdb>  (231) 
A0514b

>  <alias>  (231) 
C65388-P220

>  <energy_score>  (231) 
-3.993544

>  <HIPPO Compound ID>  (231) 
45718

$$$$
C50814-P220
     RDKit          3D

 17 18  0  0  0  0  0  0  0  0999 V2000
    9.4218    9.1538   22.5854 N   0  0  0  0  0  0  0  0  0  0  0  0
    8.9674   10.1746   23.4041 C   0  0  0  0  0  0  0  0  0  0  0  0
    9.7586   11.2764   23.5145 C   0  0  0  0  0  0  0  0  0  0  0  0
    9.3409   12.3806   24.2397 C   0  0  0  0  0  0  0  0  0  0  0  0
   10.2915   13.5191   24.2901 C   0  0  0  0  0  0  0  0  0  0  0  0
   10.4858   14.0675   25.2994 O   0  0  0  0  0  0  0  0  0  0  0  0
   10.9526   13.7022   22.9107 N   0  0  0  0  0  0  0  0  0  0  0  0
   12.0484   14.5254   22.5088 C   0  0  0  0  0  0  0  0  0  0  0  0
   12.1753   14.5860   20.9948 C   0  0  0  0  0  0  0  0  0  0  0  0
   11.0449   15.2707   20.3331 C   0  0  0  0  0  0  0  0  0  0  0  0
   10.7934   15.3904   18.9549 C   0  0  0  0  0  0  0  0  0  0  0  0
    9.7242   16.1472   18.7132 N   0  0  0  0  0  0  0  0  0  0  0  0
    9.4153   16.6580   19.9082 N   0  0  0  0  0  0  0  0  0  0  0  0
   10.0249   15.9881   20.9098 C   0  0  0  0  0  0  0  0  0  0  0  0
    8.1568   12.3170   24.9485 C   0  0  0  0  0  0  0  0  0  0  0  0
    7.4396   11.1363   24.8424 C   0  0  0  0  0  0  0  0  0  0  0  0
    7.8213   10.0738   24.0839 N   0  0  0  0  0  0  0  0  0  0  0  0
  1  2  1  0
  2  3  2  0
  3  4  1  0
  4  5  1  0
  5  6  2  0
  5  7  1  0
  7  8  1  0
  8  9  1  0
  9 10  1  0
 10 11  1  0
 11 12  2  0
 12 13  1  0
 13 14  1  0
  4 15  2  0
 15 16  1  0
 16 17  2  0
 17  2  1  0
 14 10  2  0
M  END
>  <tags>  (232) 
{'openbind_a71ev2a_c1_knitwork_pure', 'fragmenstein_placed'}

>  <distance_score>  (232) 
0.727051

>  <ref_mols>  (232) 
A3568a,A0556a

>  <smiles>  (232) 
Nc1cc(C(=O)NCCc2cn[nH]c2)ccn1

>  <HIPPO Pose ID>  (232) 
223459

>  <inchikey>  (232) 
WQRDHQBSZVIGIO-UHFFFAOYSA-N

>  <ref_pdb>  (232) 
A0514b

>  <alias>  (232) 
C50814-P220

>  <energy_score>  (232) 
-17.571529

>  <HIPPO Compound ID>  (232) 
50994

$$$$
C16362-P220
     RDKit          3D

 20 21  0  0  0  0  0  0  0  0999 V2000
   10.4128   13.9632   25.3629 O   0  0  0  0  0  0  0  0  0  0  0  0
   10.2662   13.4106   24.3497 C   0  0  0  0  0  0  0  0  0  0  0  0
   10.9873   13.5837   23.0123 N   0  0  0  0  0  0  0  0  0  0  0  0
   12.1025   14.4031   22.6579 C   0  0  0  0  0  0  0  0  0  0  0  0
   12.3144   14.5503   21.1664 C   0  0  0  0  0  0  0  0  0  0  0  0
   11.1867   15.1812   20.4614 C   0  0  0  0  0  0  0  0  0  0  0  0
   10.8736   15.0597   19.1045 C   0  0  0  0  0  0  0  0  0  0  0  0
    9.6838   15.7198   18.9911 C   0  0  0  0  0  0  0  0  0  0  0  0
    9.4655   16.3561   20.1703 N   0  0  0  0  0  0  0  0  0  0  0  0
   10.3179   15.9587   21.1090 N   0  0  0  0  0  0  0  0  0  0  0  0
    9.2694   12.3086   24.2953 C   0  0  0  0  0  0  0  0  0  0  0  0
    9.4661   11.2027   23.4830 C   0  0  0  0  0  0  0  0  0  0  0  0
    8.5773   10.1687   23.5860 C   0  0  0  0  0  0  0  0  0  0  0  0
    7.5551   10.1432   24.4611 N   0  0  0  0  0  0  0  0  0  0  0  0
    7.3669   11.2189   25.2710 C   0  0  0  0  0  0  0  0  0  0  0  0
    6.2730   11.1945   26.3300 C   0  0  0  0  0  0  0  0  0  0  0  0
    6.2197   12.3626   27.0428 F   0  0  0  0  0  0  0  0  0  0  0  0
    5.0182   11.0297   25.8528 F   0  0  0  0  0  0  0  0  0  0  0  0
    6.4423   10.2400   27.2883 F   0  0  0  0  0  0  0  0  0  0  0  0
    8.1989   12.3298   25.1877 C   0  0  0  0  0  0  0  0  0  0  0  0
  1  2  2  0
  2  3  1  0
  3  4  1  0
  4  5  1  0
  5  6  1  0
  6  7  1  0
  7  8  2  0
  8  9  1  0
  9 10  1  0
  2 11  1  0
 11 12  2  0
 12 13  1  0
 13 14  2  0
 14 15  1  0
 15 16  1  0
 16 17  1  0
 16 18  1  0
 16 19  1  0
 15 20  2  0
 10  6  2  0
 20 11  1  0
M  END
>  <tags>  (233) 
{'openbind_a71ev2a_c1_knitwork_pure', 'fragmenstein_placed'}

>  <distance_score>  (233) 
0.80787

>  <ref_mols>  (233) 
A3568a,A0556a

>  <smiles>  (233) 
O=C(NCCc1cc[nH]n1)c1ccnc(C(F)(F)F)c1

>  <HIPPO Pose ID>  (233) 
223468

>  <inchikey>  (233) 
OGJPIWQWEMAAMH-UHFFFAOYSA-N

>  <ref_pdb>  (233) 
A0514b

>  <alias>  (233) 
C16362-P220

>  <energy_score>  (233) 
-32.183412

>  <HIPPO Compound ID>  (233) 
55674

$$$$
C46023-P225
     RDKit          3D

 19 21  0  0  0  0  0  0  0  0999 V2000
   12.0529   15.2114   20.1993 C   0  0  0  0  0  0  0  0  0  0  0  0
   11.4466   16.0488   21.3204 C   0  0  0  0  0  0  0  0  0  0  0  0
   11.7425   15.4844   22.7097 C   0  0  0  0  0  0  0  0  0  0  0  0
   10.9496   14.2171   23.0011 C   0  0  0  0  0  0  0  0  0  0  0  0
    9.5084   14.4650   22.8301 N   0  0  0  0  0  0  0  0  0  0  0  0
    8.7269   13.2805   23.1981 C   0  0  0  0  0  0  0  0  0  0  0  0
    8.5685   13.1926   24.7049 C   0  0  0  0  0  0  0  0  0  0  0  0
    9.2361   13.8077   25.5340 O   0  0  0  0  0  0  0  0  0  0  0  0
    7.5399   12.2555   25.1967 C   0  0  0  0  0  0  0  0  0  0  0  0
    7.6043   10.8994   24.8402 C   0  0  0  0  0  0  0  0  0  0  0  0
    6.7895    9.9771   25.4963 C   0  0  0  0  0  0  0  0  0  0  0  0
    5.9299   10.4249   26.4844 C   0  0  0  0  0  0  0  0  0  0  0  0
    5.8399   11.7801   26.7924 C   0  0  0  0  0  0  0  0  0  0  0  0
    6.6273   12.7173   26.1514 C   0  0  0  0  0  0  0  0  0  0  0  0
    4.9364   11.9680   27.9650 C   0  0  0  0  0  0  0  0  0  0  0  0
    4.3807   10.5402   28.1484 C   0  0  0  0  0  0  0  0  0  0  0  0
    5.2737    9.6266   27.4362 N   0  0  0  0  0  0  0  0  0  0  0  0
    9.2065   14.8878   21.4580 C   0  0  0  0  0  0  0  0  0  0  0  0
    9.9386   16.1820   21.1199 C   0  0  0  0  0  0  0  0  0  0  0  0
  1  2  1  0
  2  3  1  0
  3  4  1  0
  4  5  1  0
  5  6  1  0
  6  7  1  0
  7  8  2  0
  7  9  1  0
  9 10  2  0
 10 11  1  0
 11 12  2  0
 12 13  1  0
 13 14  2  0
 13 15  1  0
 15 16  1  0
 16 17  1  0
  5 18  1  0
 18 19  1  0
 19  2  1  0
 14  9  1  0
 17 12  1  0
M  END
>  <tags>  (234) 
{'openbind_a71ev2a_c1_knitwork_pure', 'fragmenstein_placed'}

>  <distance_score>  (234) 
0.940791

>  <ref_mols>  (234) 
A3858a,A1778a

>  <smiles>  (234) 
CC1CCN(CC(=O)c2ccc3c(c2)CCN3)CC1

>  <HIPPO Pose ID>  (234) 
224440

>  <inchikey>  (234) 
ROHRNSVGYBRSRF-UHFFFAOYSA-N

>  <ref_pdb>  (234) 
A0514b

>  <alias>  (234) 
C46023-P225

>  <energy_score>  (234) 
-36.595119

>  <HIPPO Compound ID>  (234) 
76407

$$$$
C46024-P225
     RDKit          3D

 19 21  0  0  0  0  0  0  0  0999 V2000
   10.4689   15.8605   19.3104 C   0  0  0  0  0  0  0  0  0  0  0  0
   10.4672   15.8606   20.8389 C   0  0  2  0  0  0  0  0  0  0  0  0
   11.8980   15.7321   21.3637 C   0  0  0  0  0  0  0  0  0  0  0  0
   11.8973   15.4935   22.8624 C   0  0  0  0  0  0  0  0  0  0  0  0
   11.0542   14.2786   23.2100 C   0  0  0  0  0  0  0  0  0  0  0  0
    9.6560   14.5074   22.8101 N   0  0  0  0  0  0  0  0  0  0  0  0
    8.8136   13.3562   23.1879 C   0  0  0  0  0  0  0  0  0  0  0  0
    8.5601   13.3016   24.6864 C   0  0  0  0  0  0  0  0  0  0  0  0
    9.1364   13.9781   25.5366 O   0  0  0  0  0  0  0  0  0  0  0  0
    7.5509   12.3260   25.1558 C   0  0  0  0  0  0  0  0  0  0  0  0
    7.6451   10.9724   24.7921 C   0  0  0  0  0  0  0  0  0  0  0  0
    6.8494   10.0244   25.4405 C   0  0  0  0  0  0  0  0  0  0  0  0
    5.9769   10.4445   26.4299 C   0  0  0  0  0  0  0  0  0  0  0  0
    5.8582   11.7948   26.7479 C   0  0  0  0  0  0  0  0  0  0  0  0
    6.6249   12.7547   26.1144 C   0  0  0  0  0  0  0  0  0  0  0  0
    4.9501   11.9573   27.9207 C   0  0  0  0  0  0  0  0  0  0  0  0
    4.4355   10.5151   28.1081 C   0  0  0  0  0  0  0  0  0  0  0  0
    5.3352    9.6270   27.3732 N   0  0  0  0  0  0  0  0  0  0  0  0
    9.5754   14.7210   21.3550 C   0  0  0  0  0  0  0  0  0  0  0  0
  2  1  1  6
  2  3  1  0
  3  4  1  0
  4  5  1  0
  5  6  1  0
  6  7  1  0
  7  8  1  0
  8  9  2  0
  8 10  1  0
 10 11  2  0
 11 12  1  0
 12 13  2  0
 13 14  1  0
 14 15  2  0
 14 16  1  0
 16 17  1  0
 17 18  1  0
  6 19  1  0
 19  2  1  0
 15 10  1  0
 18 13  1  0
M  END
>  <tags>  (235) 
{'openbind_a71ev2a_c1_knitwork_pure', 'fragmenstein_placed'}

>  <distance_score>  (235) 
0.847483

>  <ref_mols>  (235) 
A3858a,A1778a

>  <smiles>  (235) 
C[C@@H]1CCCN(CC(=O)c2ccc3c(c2)CCN3)C1

>  <HIPPO Pose ID>  (235) 
224441

>  <inchikey>  (235) 
XOUMUYAEIAMCIP-UHFFFAOYSA-N

>  <ref_pdb>  (235) 
A0514b

>  <alias>  (235) 
C46024-P225

>  <energy_score>  (235) 
-35.225447

>  <HIPPO Compound ID>  (235) 
59983

$$$$
C46025-P225
     RDKit          3D

 19 21  0  0  0  0  0  0  0  0999 V2000
    8.4273   15.1978   21.0406 C   0  0  0  0  0  0  0  0  0  0  0  0
    9.8217   14.8241   21.5228 C   0  0  1  0  0  0  0  0  0  0  0  0
   10.7196   16.0509   21.2618 C   0  0  0  0  0  0  0  0  0  0  0  0
   12.1314   15.8418   21.7728 C   0  0  0  0  0  0  0  0  0  0  0  0
   12.0841   15.3750   23.2158 C   0  0  0  0  0  0  0  0  0  0  0  0
   11.2309   14.1291   23.3504 C   0  0  0  0  0  0  0  0  0  0  0  0
    9.8467   14.4277   22.9452 N   0  0  0  0  0  0  0  0  0  0  0  0
    8.9831   13.2760   23.2493 C   0  0  0  0  0  0  0  0  0  0  0  0
    8.6844   13.2044   24.7419 C   0  0  0  0  0  0  0  0  0  0  0  0
    9.2192   13.8886   25.6129 O   0  0  0  0  0  0  0  0  0  0  0  0
    7.6732   12.2143   25.1696 C   0  0  0  0  0  0  0  0  0  0  0  0
    7.7582   10.8810   24.7389 C   0  0  0  0  0  0  0  0  0  0  0  0
    6.8962    9.9236   25.2736 C   0  0  0  0  0  0  0  0  0  0  0  0
    5.9964   10.3053   26.2493 C   0  0  0  0  0  0  0  0  0  0  0  0
    5.8926   11.6391   26.6416 C   0  0  0  0  0  0  0  0  0  0  0  0
    6.7119   12.6132   26.1066 C   0  0  0  0  0  0  0  0  0  0  0  0
    4.8169   11.7655   27.6667 C   0  0  0  0  0  0  0  0  0  0  0  0
    4.6243   10.2809   28.0404 C   0  0  0  0  0  0  0  0  0  0  0  0
    5.0353    9.4935   26.8761 N   0  0  0  0  0  0  0  0  0  0  0  0
  2  1  1  1
  2  3  1  0
  3  4  1  0
  4  5  1  0
  5  6  1  0
  6  7  1  0
  7  8  1  0
  8  9  1  0
  9 10  2  0
  9 11  1  0
 11 12  2  0
 12 13  1  0
 13 14  2  0
 14 15  1  0
 15 16  2  0
 15 17  1  0
 17 18  1  0
 18 19  1  0
  7  2  1  0
 16 11  1  0
 19 14  1  0
M  END
>  <tags>  (236) 
{'openbind_a71ev2a_c1_knitwork_pure', 'fragmenstein_placed'}

>  <distance_score>  (236) 
0.832434

>  <ref_mols>  (236) 
A3858a,A1778a

>  <smiles>  (236) 
C[C@H]1CCCCN1CC(=O)c1ccc2c(c1)CCN2

>  <HIPPO Pose ID>  (236) 
224442

>  <inchikey>  (236) 
AMVABLYBMIDGRH-UHFFFAOYSA-N

>  <ref_pdb>  (236) 
A0514b

>  <alias>  (236) 
C46025-P225

>  <energy_score>  (236) 
-54.250433

>  <HIPPO Compound ID>  (236) 
46656

$$$$
C46033-P225
     RDKit          3D

 19 21  0  0  0  0  0  0  0  0999 V2000
   10.5258   15.5915   19.2330 C   0  0  0  0  0  0  0  0  0  0  0  0
   10.5321   15.7282   20.7506 C   0  0  1  0  0  0  0  0  0  0  0  0
    9.5154   14.7813   21.4077 C   0  0  0  0  0  0  0  0  0  0  0  0
    9.6057   14.8575   22.9302 C   0  0  1  0  0  0  0  0  0  0  0  0
    8.7620   13.8954   23.6073 N   0  0  0  0  0  0  0  0  0  0  0  0
    8.2971   13.8314   25.0674 C   0  0  0  0  0  0  0  0  0  0  0  0
    8.5788   14.4985   25.9795 O   0  0  0  0  0  0  0  0  0  0  0  0
    7.4168   12.6532   25.3317 C   0  0  0  0  0  0  0  0  0  0  0  0
    7.6895   11.3732   24.8025 C   0  0  0  0  0  0  0  0  0  0  0  0
    6.9544   10.2576   25.2325 C   0  0  0  0  0  0  0  0  0  0  0  0
    6.0009   10.4345   26.2184 C   0  0  0  0  0  0  0  0  0  0  0  0
    5.7259   11.7056   26.7235 C   0  0  0  0  0  0  0  0  0  0  0  0
    6.4085   12.8232   26.2885 C   0  0  0  0  0  0  0  0  0  0  0  0
    4.6349   11.6142   27.7370 C   0  0  0  0  0  0  0  0  0  0  0  0
    4.6074   10.0915   27.9662 C   0  0  0  0  0  0  0  0  0  0  0  0
    5.1266    9.4721   26.7449 N   0  0  0  0  0  0  0  0  0  0  0  0
   11.0462   14.6698   23.4084 C   0  0  0  0  0  0  0  0  0  0  0  0
   11.9689   15.6287   22.6814 C   0  0  0  0  0  0  0  0  0  0  0  0
   11.8773   15.4293   21.2460 N   0  0  0  0  0  0  0  0  0  0  0  0
  2  1  1  6
  2  3  1  0
  3  4  1  0
  4  5  1  1
  5  6  1  0
  6  7  2  0
  6  8  1  0
  8  9  2  0
  9 10  1  0
 10 11  2  0
 11 12  1  0
 12 13  2  0
 12 14  1  0
 14 15  1  0
 15 16  1  0
  4 17  1  0
 17 18  1  0
 18 19  1  0
 19  2  1  0
 13  8  1  0
 16 11  1  0
M  END
>  <tags>  (237) 
{'openbind_a71ev2a_c1_knitwork_pure', 'fragmenstein_placed'}

>  <distance_score>  (237) 
0.951425

>  <ref_mols>  (237) 
A3858a,A1778a

>  <smiles>  (237) 
C[C@H]1C[C@@H](NC(=O)c2ccc3c(c2)CCN3)CCN1

>  <HIPPO Pose ID>  (237) 
224447

>  <inchikey>  (237) 
WKBRMGXSMGHJIB-UHFFFAOYSA-N

>  <ref_pdb>  (237) 
A0514b

>  <alias>  (237) 
C46033-P225

>  <energy_score>  (237) 
-22.906909

>  <HIPPO Compound ID>  (237) 
50998

$$$$
C57129-P481
     RDKit          3D

 22 24  0  0  0  0  0  0  0  0999 V2000
   16.9106   14.6290    3.5835 O   0  0  0  0  0  0  0  0  0  0  0  0
   17.2362   15.0822    2.5586 C   0  0  0  0  0  0  0  0  0  0  0  0
   16.3648   16.0780    1.7917 C   0  0  0  0  0  0  0  0  0  0  0  0
   16.5758   17.5410    2.2189 C   0  0  1  0  0  0  0  0  0  0  0  0
   16.0383   17.8173    3.6358 C   0  0  0  0  0  0  0  0  0  0  0  0
   16.6823   19.0463    4.2804 C   0  0  0  0  0  0  0  0  0  0  0  0
   17.1965   20.0271    3.2345 C   0  0  0  0  0  0  0  0  0  0  0  0
   18.2176   19.4346    2.3716 N   0  0  0  0  0  0  0  0  0  0  0  0
   18.0303   18.0119    2.0915 C   0  0  0  0  0  0  0  0  0  0  0  0
   18.5419   14.8919    1.7461 N   0  0  0  0  0  0  0  0  0  0  0  0
   19.7525   14.1805    2.0729 C   0  0  0  0  0  0  0  0  0  0  0  0
   20.9451   15.1312    2.1091 C   0  0  0  0  0  0  0  0  0  0  0  0
   22.2590   14.4277    2.4648 C   0  0  0  0  0  0  0  0  0  0  0  0
   22.8075   13.6804    1.3023 C   0  0  0  0  0  0  0  0  0  0  0  0
   22.2308   13.5278    0.1258 N   0  0  0  0  0  0  0  0  0  0  0  0
   23.0916   12.8454   -0.6952 N   0  0  0  0  0  0  0  0  0  0  0  0
   24.1828   12.5947   -0.0083 C   0  0  0  0  0  0  0  0  0  0  0  0
   24.0316   13.0738    1.2653 N   0  0  0  0  0  0  0  0  0  0  0  0
   25.0595   13.0390    2.2821 C   0  0  0  0  0  0  0  0  0  0  0  0
   26.2061   12.0889    1.9240 C   0  0  0  0  0  0  0  0  0  0  0  0
   26.5997   12.2255    0.4515 C   0  0  0  0  0  0  0  0  0  0  0  0
   25.4162   11.9091   -0.4647 C   0  0  0  0  0  0  0  0  0  0  0  0
  1  2  2  0
  2  3  1  0
  4  3  1  1
  4  5  1  0
  5  6  1  0
  6  7  1  0
  7  8  1  0
  8  9  1  0
  2 10  1  0
 10 11  1  0
 11 12  1  0
 12 13  1  0
 13 14  1  0
 14 15  2  0
 15 16  1  0
 16 17  2  0
 17 18  1  0
 18 19  1  0
 19 20  1  0
 20 21  1  0
 21 22  1  0
  9  4  1  0
 18 14  1  0
 22 17  1  0
M  END
>  <tags>  (238) 
{'openbind_a71ev2a_c1_knitwork_pure', 'fragmenstein_placed'}

>  <distance_score>  (238) 
0.78453

>  <ref_mols>  (238) 
A4836a,A0239a

>  <smiles>  (238) 
O=C(C[C@H]1CCCNC1)NCCCc1nnc2n1CCCC2

>  <HIPPO Pose ID>  (238) 
224676

>  <inchikey>  (238) 
VRSHMDURHCTYSQ-UHFFFAOYSA-N

>  <ref_pdb>  (238) 
A0514b

>  <alias>  (238) 
C57129-P481

>  <energy_score>  (238) 
-11.870685

>  <HIPPO Compound ID>  (238) 
78609

$$$$
C57137-P481
     RDKit          3D

 21 23  0  0  0  0  0  0  0  0999 V2000
   20.8777   14.8568    2.1049 C   0  0  0  0  0  0  0  0  0  0  0  0
   22.2870   14.3884    2.4398 C   0  0  0  0  0  0  0  0  0  0  0  0
   22.8707   13.6107    1.3148 C   0  0  0  0  0  0  0  0  0  0  0  0
   22.2897   13.3240    0.1659 N   0  0  0  0  0  0  0  0  0  0  0  0
   23.1864   12.6417   -0.6157 N   0  0  0  0  0  0  0  0  0  0  0  0
   24.3163   12.5494    0.0524 C   0  0  0  0  0  0  0  0  0  0  0  0
   24.1333   13.0887    1.2999 N   0  0  0  0  0  0  0  0  0  0  0  0
   25.1391   13.1317    2.3383 C   0  0  0  0  0  0  0  0  0  0  0  0
   26.3086   12.1902    2.0485 C   0  0  0  0  0  0  0  0  0  0  0  0
   26.7386   12.2942    0.5848 C   0  0  0  0  0  0  0  0  0  0  0  0
   25.5919   11.8868   -0.3568 C   0  0  2  0  0  0  0  0  0  0  0  0
   25.9435   12.1997   -1.8273 C   0  0  0  0  0  0  0  0  0  0  0  0
   26.9120   12.7775   -2.1338 O   0  0  0  0  0  0  0  0  0  0  0  0
   24.8543   11.5232   -2.7059 N   0  0  0  0  0  0  0  0  0  0  0  0
   24.6868   11.5027   -4.1341 C   0  0  0  0  0  0  0  0  0  0  0  0
   24.8925   10.0975   -4.7232 C   0  0  1  0  0  0  0  0  0  0  0  0
   24.5665   10.0845   -6.2256 C   0  0  0  0  0  0  0  0  0  0  0  0
   25.6625   10.7597   -7.0493 C   0  0  0  0  0  0  0  0  0  0  0  0
   27.0399   10.1880   -6.7185 C   0  0  0  0  0  0  0  0  0  0  0  0
   27.3403   10.2402   -5.2890 N   0  0  0  0  0  0  0  0  0  0  0  0
   26.3142    9.5453   -4.5046 C   0  0  0  0  0  0  0  0  0  0  0  0
  1  2  1  0
  2  3  1  0
  3  4  2  0
  4  5  1  0
  5  6  2  0
  6  7  1  0
  7  8  1  0
  8  9  1  0
  9 10  1  0
 10 11  1  0
 11 12  1  6
 12 13  2  0
 12 14  1  0
 14 15  1  0
 16 15  1  6
 16 17  1  0
 17 18  1  0
 18 19  1  0
 19 20  1  0
 20 21  1  0
  7  3  1  0
 21 16  1  0
 11  6  1  0
M  END
>  <tags>  (239) 
{'openbind_a71ev2a_c1_knitwork_pure', 'fragmenstein_placed'}

>  <distance_score>  (239) 
0.872258

>  <ref_mols>  (239) 
A4836a,A0239a

>  <smiles>  (239) 
CCc1nnc2n1CCC[C@@H]2C(=O)NC[C@H]1CCCNC1

>  <HIPPO Pose ID>  (239) 
224677

>  <inchikey>  (239) 
SZIVMHZNNDPTLC-UHFFFAOYSA-N

>  <ref_pdb>  (239) 
A0514b

>  <alias>  (239) 
C57137-P481

>  <energy_score>  (239) 
-27.725608

>  <HIPPO Compound ID>  (239) 
46489

$$$$
C57140-P481
     RDKit          3D

 22 24  0  0  0  0  0  0  0  0999 V2000
   20.9275   14.3122    2.5653 C   0  0  0  0  0  0  0  0  0  0  0  0
   22.4478   14.1874    2.5159 C   0  0  0  0  0  0  0  0  0  0  0  0
   22.8759   13.7032    1.1801 C   0  0  0  0  0  0  0  0  0  0  0  0
   22.1666   13.7857    0.0700 N   0  0  0  0  0  0  0  0  0  0  0  0
   22.8395   13.1354   -0.9270 N   0  0  0  0  0  0  0  0  0  0  0  0
   23.9651   12.6937   -0.4201 C   0  0  0  0  0  0  0  0  0  0  0  0
   24.0487   13.0587    0.8981 N   0  0  0  0  0  0  0  0  0  0  0  0
   25.2306   12.8895    1.7207 C   0  0  0  0  0  0  0  0  0  0  0  0
   26.2942   11.9945    1.0468 C   0  0  2  0  0  0  0  0  0  0  0  0
   27.6095   12.1461    1.6235 N   0  0  0  0  0  0  0  0  0  0  0  0
   28.1532   11.7205    3.0012 C   0  0  0  0  0  0  0  0  0  0  0  0
   27.6489   11.1143    3.8552 O   0  0  0  0  0  0  0  0  0  0  0  0
   29.5858   12.2631    3.0857 C   0  0  0  0  0  0  0  0  0  0  0  0
   30.4682   11.3913    3.9842 C   0  0  0  0  0  0  0  0  0  0  0  0
   31.9094   11.8862    4.1985 C   0  0  1  0  0  0  0  0  0  0  0  0
   32.6988   12.0601    2.8991 C   0  0  0  0  0  0  0  0  0  0  0  0
   34.1551   12.4422    3.1905 C   0  0  0  0  0  0  0  0  0  0  0  0
   34.3613   13.0059    4.5986 C   0  0  0  0  0  0  0  0  0  0  0  0
   33.2600   13.8831    4.9703 N   0  0  0  0  0  0  0  0  0  0  0  0
   31.9750   13.1759    5.0434 C   0  0  0  0  0  0  0  0  0  0  0  0
   26.3767   12.2092   -0.4643 C   0  0  0  0  0  0  0  0  0  0  0  0
   25.0289   11.9360   -1.1111 C   0  0  0  0  0  0  0  0  0  0  0  0
  1  2  1  0
  2  3  1  0
  3  4  2  0
  4  5  1  0
  5  6  2  0
  6  7  1  0
  7  8  1  0
  8  9  1  0
  9 10  1  1
 10 11  1  0
 11 12  2  0
 11 13  1  0
 13 14  1  0
 15 14  1  6
 15 16  1  0
 16 17  1  0
 17 18  1  0
 18 19  1  0
 19 20  1  0
  9 21  1  0
 21 22  1  0
  7  3  1  0
 20 15  1  0
 22  6  1  0
M  END
>  <tags>  (240) 
{'openbind_a71ev2a_c1_knitwork_pure', 'fragmenstein_placed'}

>  <distance_score>  (240) 
0.747509

>  <ref_mols>  (240) 
A4836a,A0239a

>  <smiles>  (240) 
CCc1nnc2n1C[C@H](NC(=O)CC[C@H]1CCCNC1)CC2

>  <HIPPO Pose ID>  (240) 
224680

>  <inchikey>  (240) 
FGSGQPZOSTVLEH-UHFFFAOYSA-N

>  <ref_pdb>  (240) 
A0514b

>  <alias>  (240) 
C57140-P481

>  <energy_score>  (240) 
-24.941856

>  <HIPPO Compound ID>  (240) 
47143

$$$$
C79212-P220
     RDKit          3D

 18 19  0  0  0  0  0  0  0  0999 V2000
   19.1411   21.6736    1.4079 C   0  0  0  0  0  0  0  0  0  0  0  0
   20.1128   21.1126    2.2916 O   0  0  0  0  0  0  0  0  0  0  0  0
   20.5027   19.8498    1.9523 C   0  0  0  0  0  0  0  0  0  0  0  0
   20.0682   19.2181    0.9993 O   0  0  0  0  0  0  0  0  0  0  0  0
   21.4839   19.3872    2.8930 C   0  0  0  0  0  0  0  0  0  0  0  0
   21.9133   20.0767    4.0040 N   0  0  0  0  0  0  0  0  0  0  0  0
   22.8172   19.3030    4.6707 C   0  0  0  0  0  0  0  0  0  0  0  0
   23.4862   19.7285    5.9903 C   0  0  0  0  0  0  0  0  0  0  0  0
   24.4066   18.9886    6.6872 C   0  0  0  0  0  0  0  0  0  0  0  0
   24.7236   19.6825    7.8163 O   0  0  0  0  0  0  0  0  0  0  0  0
   23.9706   20.8167    7.7196 C   0  0  0  0  0  0  0  0  0  0  0  0
   23.2270   20.9099    6.6372 N   0  0  0  0  0  0  0  0  0  0  0  0
   23.0114   18.1645    4.0473 N   0  0  0  0  0  0  0  0  0  0  0  0
   22.1988   18.1988    2.9344 C   0  0  0  0  0  0  0  0  0  0  0  0
   22.1408   17.0308    1.9995 C   0  0  0  0  0  0  0  0  0  0  0  0
   23.3753   16.1105    2.0509 C   0  0  0  0  0  0  0  0  0  0  0  0
   23.0642   14.7799    1.3671 C   0  0  0  0  0  0  0  0  0  0  0  0
   24.5982   16.7667    1.4070 C   0  0  0  0  0  0  0  0  0  0  0  0
  1  2  1  0
  2  3  1  0
  3  4  2  0
  3  5  1  0
  5  6  1  0
  6  7  1  0
  7  8  1  0
  8  9  2  0
  9 10  1  0
 10 11  1  0
 11 12  2  0
  7 13  2  0
 13 14  1  0
 14 15  1  0
 15 16  1  0
 16 17  1  0
 16 18  1  0
 14  5  2  0
 12  8  1  0
M  END
>  <tags>  (241) 
{'openbind_a71ev2a_c1_knitwork_pure', 'fragmenstein_placed'}

>  <distance_score>  (241) 
0.533322

>  <ref_mols>  (241) 
A3568a,A0309a

>  <smiles>  (241) 
COC(=O)c1[nH]c(-c2cocn2)nc1CC(C)C

>  <HIPPO Pose ID>  (241) 
224688

>  <inchikey>  (241) 
GKINGEPBNWSYJT-UHFFFAOYSA-N

>  <ref_pdb>  (241) 
A0239a

>  <alias>  (241) 
C79212-P220

>  <energy_score>  (241) 
-36.368791

>  <HIPPO Compound ID>  (241) 
52296

$$$$
C13210-P271
     RDKit          3D

 13 13  0  0  0  0  0  0  0  0999 V2000
    7.0347   15.4459   26.5856 C   0  0  0  0  0  0  0  0  0  0  0  0
    7.7717   15.4182   25.2571 C   0  0  0  0  0  0  0  0  0  0  0  0
    6.8478   15.0078   24.1147 C   0  0  0  0  0  0  0  0  0  0  0  0
    7.7168   14.3216   22.7085 S   0  0  0  0  0  0  0  0  0  0  0  0
    8.4342   15.3869   22.0443 O   0  0  0  0  0  0  0  0  0  0  0  0
    6.8263   13.4512   21.9686 O   0  0  0  0  0  0  0  0  0  0  0  0
    8.9308   13.3518   23.4508 N   0  0  0  0  0  0  0  0  0  0  0  0
    8.4533   12.0550   23.7413 N   0  0  0  0  0  0  0  0  0  0  0  0
    9.5192   11.0634   23.5300 C   0  0  0  0  0  0  0  0  0  0  0  0
    9.0319    9.6369   23.7233 C   0  0  0  0  0  0  0  0  0  0  0  0
    8.2386    9.4710   24.9958 C   0  0  0  0  0  0  0  0  0  0  0  0
    7.3427   10.6068   25.4120 C   0  0  0  0  0  0  0  0  0  0  0  0
    7.9655   11.9589   25.1260 C   0  0  0  0  0  0  0  0  0  0  0  0
  1  2  1  0
  2  3  1  0
  3  4  1  0
  4  5  2  0
  4  6  2  0
  4  7  1  0
  7  8  1  0
  8  9  1  0
  9 10  1  0
 10 11  1  0
 11 12  1  0
 12 13  1  0
 13  8  1  0
M  END
>  <tags>  (242) 
{'openbind_a71ev2a_c1_knitwork_pure', 'fragmenstein_placed'}

>  <distance_score>  (242) 
0.856598

>  <ref_mols>  (242) 
A0719a,A4020b

>  <smiles>  (242) 
CCCS(=O)(=O)NN1CCCCC1

>  <HIPPO Pose ID>  (242) 
225287

>  <inchikey>  (242) 
YZUDVCSNWGWELH-UHFFFAOYSA-N

>  <ref_pdb>  (242) 
A0239a

>  <alias>  (242) 
C13210-P271

>  <energy_score>  (242) 
-25.061871

>  <HIPPO Compound ID>  (242) 
45760

$$$$
C63652-P229
     RDKit          3D

 20 21  0  0  0  0  0  0  0  0999 V2000
    7.5416   13.8141   23.1795 C   0  0  0  0  0  0  0  0  0  0  0  0
    8.8121   13.6033   23.8933 N   0  0  0  0  0  0  0  0  0  0  0  0
    9.8552   14.1707   23.0353 C   0  0  0  0  0  0  0  0  0  0  0  0
   11.3066   14.1925   23.5062 C   0  0  0  0  0  0  0  0  0  0  0  0
   12.0431   15.2503   22.8789 O   0  0  0  0  0  0  0  0  0  0  0  0
   12.1128   15.1824   21.4474 C   0  0  0  0  0  0  0  0  0  0  0  0
   10.9745   15.9128   20.7216 C   0  0  0  0  0  0  0  0  0  0  0  0
   11.1583   15.8881   19.3132 O   0  0  0  0  0  0  0  0  0  0  0  0
    9.0445   12.2051   24.2716 C   0  0  0  0  0  0  0  0  0  0  0  0
    8.0322   11.6507   25.2537 C   0  0  0  0  0  0  0  0  0  0  0  0
    7.2489   12.4781   26.0618 C   0  0  0  0  0  0  0  0  0  0  0  0
    6.2286   11.9442   26.8347 C   0  0  0  0  0  0  0  0  0  0  0  0
    6.0797   10.5659   26.8886 C   0  0  0  0  0  0  0  0  0  0  0  0
    5.0082   10.0702   27.6966 N   0  0  0  0  0  0  0  0  0  0  0  0
    4.9053    8.8507   28.3196 C   0  0  0  0  0  0  0  0  0  0  0  0
    3.6379    8.7392   28.8314 C   0  0  0  0  0  0  0  0  0  0  0  0
    3.0708    9.9935   28.5914 C   0  0  0  0  0  0  0  0  0  0  0  0
    3.9111   10.8324   27.9827 N   0  0  0  0  0  0  0  0  0  0  0  0
    6.9085    9.7143   26.2167 N   0  0  0  0  0  0  0  0  0  0  0  0
    7.8316   10.2802   25.3895 C   0  0  0  0  0  0  0  0  0  0  0  0
  1  2  1  0
  2  3  1  0
  3  4  1  0
  4  5  1  0
  5  6  1  0
  6  7  1  0
  7  8  1  0
  2  9  1  0
  9 10  1  0
 10 11  2  0
 11 12  1  0
 12 13  2  0
 13 14  1  0
 14 15  1  0
 15 16  2  0
 16 17  1  0
 17 18  2  0
 13 19  1  0
 19 20  2  0
 20 10  1  0
 18 14  1  0
M  END
>  <tags>  (243) 
{'openbind_a71ev2a_c1_knitwork_pure', 'fragmenstein_placed'}

>  <distance_score>  (243) 
0.995889

>  <ref_mols>  (243) 
A0556a,A3869a

>  <smiles>  (243) 
CN(CCOCCO)Cc1ccc(-n2cccn2)nc1

>  <HIPPO Pose ID>  (243) 
227179

>  <inchikey>  (243) 
SBSIUJKZMODQOZ-UHFFFAOYSA-N

>  <ref_pdb>  (243) 
A0239a

>  <alias>  (243) 
C63652-P229

>  <energy_score>  (243) 
-23.879086

>  <HIPPO Compound ID>  (243) 
51171

$$$$
C24948-P174
     RDKit          3D

 14 15  0  0  0  0  0  0  0  0999 V2000
   16.1587   14.8933    0.4046 C   0  0  0  0  0  0  0  0  0  0  0  0
   17.6177   14.7044    0.7764 C   0  0  2  0  0  0  0  0  0  0  0  0
   18.1276   13.2928    0.5186 C   0  0  0  0  0  0  0  0  0  0  0  0
   19.1717   13.1051    1.6063 C   0  0  1  0  0  0  0  0  0  0  0  0
   20.5322   13.6956    1.1883 C   0  0  0  0  0  0  0  0  0  0  0  0
   21.5342   13.4922    2.2315 N   0  0  0  0  0  0  0  0  0  0  0  0
   22.8746   13.9674    1.8496 C   0  0  0  0  0  0  0  0  0  0  0  0
   22.9927   15.4662    1.8255 C   0  0  0  0  0  0  0  0  0  0  0  0
   22.1484   16.4541    2.2994 C   0  0  0  0  0  0  0  0  0  0  0  0
   22.7530   17.6398    1.9852 N   0  0  0  0  0  0  0  0  0  0  0  0
   23.9298   17.3481    1.3614 C   0  0  0  0  0  0  0  0  0  0  0  0
   24.1049   16.0526    1.2522 N   0  0  0  0  0  0  0  0  0  0  0  0
   18.5092   13.8526    2.7537 C   0  0  0  0  0  0  0  0  0  0  0  0
   17.7954   14.9592    2.1813 O   0  0  0  0  0  0  0  0  0  0  0  0
  2  1  1  1
  2  3  1  0
  3  4  1  0
  4  5  1  6
  5  6  1  0
  6  7  1  0
  7  8  1  0
  8  9  2  0
  9 10  1  0
 10 11  1  0
 11 12  2  0
  4 13  1  0
 13 14  1  0
 14  2  1  0
 12  8  1  0
M  END
>  <tags>  (244) 
{'openbind_a71ev2a_c1_knitwork_pure', 'fragmenstein_placed'}

>  <distance_score>  (244) 
0.797814

>  <ref_mols>  (244) 
A3371a,A0608a

>  <smiles>  (244) 
C[C@@H]1C[C@@H](CNCc2c[nH]cn2)CO1

>  <HIPPO Pose ID>  (244) 
228121

>  <inchikey>  (244) 
VJYRZHQTAWWYSA-UHFFFAOYSA-N

>  <ref_pdb>  (244) 
A0239a

>  <alias>  (244) 
C24948-P174

>  <energy_score>  (244) 
-36.224538

>  <HIPPO Compound ID>  (244) 
17161

$$$$
C45815-P469
     RDKit          3D

 19 21  0  0  0  0  0  0  0  0999 V2000
    5.5131   14.4206   27.4436 C   0  0  0  0  0  0  0  0  0  0  0  0
    4.7378   13.6056   26.5611 O   0  0  0  0  0  0  0  0  0  0  0  0
    4.9897   13.9271   25.2554 C   0  0  0  0  0  0  0  0  0  0  0  0
    3.9273   14.3781   24.4810 C   0  0  0  0  0  0  0  0  0  0  0  0
    4.1167   14.6605   23.1184 C   0  0  0  0  0  0  0  0  0  0  0  0
    5.3748   14.5130   22.5136 C   0  0  0  0  0  0  0  0  0  0  0  0
    5.6119   14.6569   21.1760 O   0  0  0  0  0  0  0  0  0  0  0  0
    4.4629   14.6261   20.3318 C   0  0  0  0  0  0  0  0  0  0  0  0
    6.4473   14.1388   23.3147 C   0  0  0  0  0  0  0  0  0  0  0  0
    6.2292   13.7598   24.6487 C   0  0  0  0  0  0  0  0  0  0  0  0
    7.3870   13.1985   25.2724 N   0  0  0  0  0  0  0  0  0  0  0  0
    8.2312   12.9256   24.0908 C   0  0  0  0  0  0  0  0  0  0  0  0
    7.9209   14.0027   22.9972 C   0  0  2  0  0  0  0  0  0  0  0  0
    8.6023   15.3119   23.1042 N   0  0  0  0  0  0  0  0  0  0  0  0
    9.8658   15.3691   23.8404 C   0  0  0  0  0  0  0  0  0  0  0  0
   11.0614   14.8099   23.0669 C   0  0  0  0  0  0  0  0  0  0  0  0
   11.2171   15.5196   21.7268 C   0  0  0  0  0  0  0  0  0  0  0  0
    9.9045   15.4797   20.9542 C   0  0  0  0  0  0  0  0  0  0  0  0
    8.7366   15.9922   21.8042 C   0  0  0  0  0  0  0  0  0  0  0  0
  1  2  1  0
  2  3  1  0
  3  4  2  0
  4  5  1  0
  5  6  2  0
  6  7  1  0
  7  8  1  0
  6  9  1  0
  9 10  2  0
 10 11  1  0
 11 12  1  0
 12 13  1  0
 13 14  1  1
 14 15  1  0
 15 16  1  0
 16 17  1  0
 17 18  1  0
 18 19  1  0
 10  3  1  0
 19 14  1  0
 13  9  1  0
M  END
>  <tags>  (245) 
{'openbind_a71ev2a_c1_knitwork_pure', 'fragmenstein_placed'}

>  <distance_score>  (245) 
0.909174

>  <ref_mols>  (245) 
A1778a,A4806a

>  <smiles>  (245) 
COc1ccc(OC)c2c1NC[C@@H]2N1CCCCC1

>  <HIPPO Pose ID>  (245) 
229622

>  <inchikey>  (245) 
NAKUARJYTXIAKL-UHFFFAOYSA-N

>  <ref_pdb>  (245) 
A2629a

>  <alias>  (245) 
C45815-P469

>  <energy_score>  (245) 
-38.25025

>  <HIPPO Compound ID>  (245) 
45943

$$$$
C95588-P135
     RDKit          3D

 22 23  0  0  0  0  0  0  0  0999 V2000
   11.9906   19.6281   20.8940 C   0  0  0  0  0  0  0  0  0  0  0  0
   13.3094   19.5606   21.1116 C   0  0  0  0  0  0  0  0  0  0  0  0
   14.2276   18.3939   20.8798 C   0  0  0  0  0  0  0  0  0  0  0  0
   13.6006   17.2419   20.2606 N   0  0  0  0  0  0  0  0  0  0  0  0
   12.8434   16.2923   21.0985 C   0  0  0  0  0  0  0  0  0  0  0  0
   12.6248   14.9066   20.4652 C   0  0  1  0  0  0  0  0  0  0  0  0
   11.7019   13.9459   21.0588 N   0  0  0  0  0  0  0  0  0  0  0  0
   11.5160   13.8101   22.4995 C   0  0  0  0  0  0  0  0  0  0  0  0
   10.0521   13.2929   22.7429 C   0  0  1  0  0  0  0  0  0  0  0  0
    9.7533   12.4018   23.9445 C   0  0  0  0  0  0  0  0  0  0  0  0
    9.5734   12.9097   25.2290 C   0  0  0  0  0  0  0  0  0  0  0  0
    8.7122   12.2654   26.1068 C   0  0  0  0  0  0  0  0  0  0  0  0
    8.1697   11.0598   25.7195 C   0  0  0  0  0  0  0  0  0  0  0  0
    8.5213   10.4187   24.5930 N   0  0  0  0  0  0  0  0  0  0  0  0
    9.3064   11.0992   23.7272 C   0  0  0  0  0  0  0  0  0  0  0  0
    9.0298   14.3798   22.5493 N   0  0  0  0  0  0  0  0  0  0  0  0
    7.6817   13.9289   22.2758 C   0  0  0  0  0  0  0  0  0  0  0  0
    8.9333   15.3248   23.6339 C   0  0  0  0  0  0  0  0  0  0  0  0
   12.2724   14.9948   18.9830 C   0  0  0  0  0  0  0  0  0  0  0  0
   13.1445   15.9648   18.2239 C   0  0  0  0  0  0  0  0  0  0  0  0
   13.4849   17.2636   18.8872 C   0  0  0  0  0  0  0  0  0  0  0  0
   13.7852   18.2374   18.1927 O   0  0  0  0  0  0  0  0  0  0  0  0
  1  2  2  0
  2  3  1  0
  3  4  1  0
  4  5  1  0
  5  6  1  0
  6  7  1  1
  7  8  1  0
  9  8  1  1
  9 10  1  0
 10 11  2  0
 11 12  1  0
 12 13  2  0
 13 14  1  0
 14 15  2  0
  9 16  1  0
 16 17  1  0
 16 18  1  0
  6 19  1  0
 19 20  1  0
 20 21  1  0
 21 22  2  0
 21  4  1  0
 15 10  1  0
M  END
>  <tags>  (246) 
{'openbind_a71ev2a_c1_knitwork_pure', 'fragmenstein_placed'}

>  <distance_score>  (246) 
0.982107

>  <ref_mols>  (246) 
A5036a,A2629a

>  <smiles>  (246) 
C=CCN1C[C@@H](NC[C@@H](c2cccnc2)N(C)C)CCC1=O

>  <HIPPO Pose ID>  (246) 
229987

>  <inchikey>  (246) 
HVSNCLWSDCNDJH-UHFFFAOYSA-N

>  <ref_pdb>  (246) 
A2629a

>  <alias>  (246) 
C95588-P135

>  <energy_score>  (246) 
-11.143184

>  <HIPPO Compound ID>  (246) 
95588

$$$$
C56176-P71
     RDKit          3D

 21 23  0  0  0  0  0  0  0  0999 V2000
    0.1266    6.6195    6.6199 O   0  0  0  0  0  0  0  0  0  0  0  0
    0.1562    7.5896    5.8791 C   0  0  0  0  0  0  0  0  0  0  0  0
   -0.7921    7.8848    4.9212 N   0  0  0  0  0  0  0  0  0  0  0  0
   -0.5857    9.2036    4.3797 C   0  0  0  0  0  0  0  0  0  0  0  0
    0.8320    9.6003    4.8289 C   0  0  2  0  0  0  0  0  0  0  0  0
    1.8144    9.6336    3.6313 C   0  0  0  0  0  0  0  0  0  0  0  0
    2.9482   10.5194    3.8019 O   0  0  0  0  0  0  0  0  0  0  0  0
    2.7128   11.8602    3.6867 C   0  0  0  0  0  0  0  0  0  0  0  0
    1.5923   12.3315    3.5036 O   0  0  0  0  0  0  0  0  0  0  0  0
    3.9167   12.7100    3.8264 C   0  0  0  0  0  0  0  0  0  0  0  0
    3.8697   13.9801    4.3789 C   0  0  0  0  0  0  0  0  0  0  0  0
    5.4397   14.6463    4.5071 S   0  0  0  0  0  0  0  0  0  0  0  0
    6.0686   13.3398    3.5795 C   0  0  0  0  0  0  0  0  0  0  0  0
    7.3999   13.4262    2.9477 C   0  0  0  0  0  0  0  0  0  0  0  0
    7.8431   12.3925    2.1159 C   0  0  0  0  0  0  0  0  0  0  0  0
    9.0033   12.5436    1.3560 C   0  0  0  0  0  0  0  0  0  0  0  0
    9.7118   13.7281    1.4610 C   0  0  0  0  0  0  0  0  0  0  0  0
    9.3680   14.7319    2.2951 N   0  0  0  0  0  0  0  0  0  0  0  0
    8.2203   14.5569    3.0052 C   0  0  0  0  0  0  0  0  0  0  0  0
    5.2041   12.3541    3.3962 N   0  0  0  0  0  0  0  0  0  0  0  0
    1.1268    8.5748    5.8243 N   0  0  0  0  0  0  0  0  0  0  0  0
  1  2  2  0
  2  3  1  0
  3  4  1  0
  4  5  1  0
  5  6  1  6
  6  7  1  0
  7  8  1  0
  8  9  2  0
  8 10  1  0
 10 11  2  0
 11 12  1  0
 12 13  1  0
 13 14  1  0
 14 15  2  0
 15 16  1  0
 16 17  2  0
 17 18  1  0
 18 19  2  0
 13 20  2  0
  5 21  1  0
 21  2  1  0
 20 10  1  0
 19 14  1  0
M  END
>  <tags>  (247) 
{'openbind_a71ev2a_c1_knitwork_pure', 'fragmenstein_placed'}

>  <distance_score>  (247) 
0.996207

>  <ref_mols>  (247) 
A1081b,A0428a

>  <smiles>  (247) 
O=C1NC[C@H](COC(=O)c2csc(-c3cccnc3)n2)N1

>  <HIPPO Pose ID>  (247) 
230343

>  <inchikey>  (247) 
YJLJMKADNGNFEP-UHFFFAOYSA-N

>  <ref_pdb>  (247) 
A2629a

>  <alias>  (247) 
C56176-P71

>  <energy_score>  (247) 
-90.652352

>  <HIPPO Compound ID>  (247) 
65555

$$$$
C95867-P543
     RDKit          3D

 17 18  0  0  0  0  0  0  0  0999 V2000
    9.4280   10.7231   23.3236 C   0  0  0  0  0  0  0  0  0  0  0  0
    9.0303   11.9465   24.1506 C   0  0  0  0  0  0  0  0  0  0  0  0
    8.2331   11.4184   25.3493 C   0  0  0  0  0  0  0  0  0  0  0  0
   10.3036   12.7663   24.4245 C   0  0  0  0  0  0  0  0  0  0  0  0
    8.0818   12.7389   23.4109 O   0  0  0  0  0  0  0  0  0  0  0  0
    7.6626   13.9010   24.0061 C   0  0  0  0  0  0  0  0  0  0  0  0
    8.2746   14.5077   24.7989 O   0  0  0  0  0  0  0  0  0  0  0  0
    6.3442   14.1714   23.4087 N   0  0  0  0  0  0  0  0  0  0  0  0
    6.4679   15.0150   22.1252 C   0  0  0  0  0  0  0  0  0  0  0  0
    4.9858   15.2493   22.2344 C   0  0  0  0  0  0  0  0  0  0  0  0
    4.1630   14.1389   21.8670 N   0  0  0  0  0  0  0  0  0  0  0  0
    3.3976   14.0808   20.7787 C   0  0  0  0  0  0  0  0  0  0  0  0
    2.8060   15.0497   20.1176 N   0  0  0  0  0  0  0  0  0  0  0  0
    2.1385   14.3879   19.1118 C   0  0  0  0  0  0  0  0  0  0  0  0
    2.3947   13.0438   19.1862 C   0  0  0  0  0  0  0  0  0  0  0  0
    3.1919   12.8328   20.2683 O   0  0  0  0  0  0  0  0  0  0  0  0
    5.3291   15.2541   23.7018 C   0  0  0  0  0  0  0  0  0  0  0  0
  1  2  1  0
  2  3  1  0
  2  4  1  0
  2  5  1  0
  5  6  1  0
  6  7  2  0
  6  8  1  0
  8  9  1  0
  9 10  1  0
 10 11  1  0
 11 12  1  0
 12 13  2  0
 13 14  1  0
 14 15  2  0
 15 16  1  0
 10 17  1  0
 17  8  1  0
 16 12  1  0
M  END
>  <tags>  (248) 
{'openbind_a71ev2a_c1_knitwork_pure', 'fragmenstein_placed'}

>  <distance_score>  (248) 
0.990537

>  <ref_mols>  (248) 
A3623a,A4994a

>  <smiles>  (248) 
CC(C)(C)OC(=O)N1CC(Nc2ncco2)C1

>  <HIPPO Pose ID>  (248) 
230911

>  <inchikey>  (248) 
XUNSVHLTAIMYCN-UHFFFAOYSA-N

>  <ref_pdb>  (248) 
A2629a

>  <alias>  (248) 
C95867-P543

>  <energy_score>  (248) 
-6.762718

>  <HIPPO Compound ID>  (248) 
53759

$$$$
C79259-P174
     RDKit          3D

 21 24  0  0  0  0  0  0  0  0999 V2000
    6.1508   11.4648   26.4993 C   0  0  0  0  0  0  0  0  0  0  0  0
    6.6512   12.7611   26.5776 C   0  0  0  0  0  0  0  0  0  0  0  0
    7.7455   13.1503   25.7965 C   0  0  0  0  0  0  0  0  0  0  0  0
    8.3410   12.2233   24.9146 C   0  0  0  0  0  0  0  0  0  0  0  0
    9.4809   12.2671   24.0407 C   0  0  0  0  0  0  0  0  0  0  0  0
   10.4740   13.3938   23.9308 C   0  0  0  0  0  0  0  0  0  0  0  0
   11.0129   13.6885   22.5196 C   0  0  0  0  0  0  0  0  0  0  0  0
   11.7662   14.9596   22.5237 N   0  0  0  0  0  0  0  0  0  0  0  0
   12.0898   15.4566   21.1738 C   0  0  1  0  0  0  0  0  0  0  0  0
   10.8475   15.7459   20.3944 C   0  0  0  0  0  0  0  0  0  0  0  0
   10.6383   15.4437   19.1394 N   0  0  0  0  0  0  0  0  0  0  0  0
    9.8119   16.4305   18.6985 C   0  0  0  0  0  0  0  0  0  0  0  0
    9.3866   17.2361   19.7300 C   0  0  0  0  0  0  0  0  0  0  0  0
    9.9233   16.6646   20.8382 N   0  0  0  0  0  0  0  0  0  0  0  0
   12.8386   16.8029   21.1953 C   0  0  0  0  0  0  0  0  0  0  0  0
   14.2734   17.0591   21.5241 C   0  0  0  0  0  0  0  0  0  0  0  0
   13.8533   17.0175   20.0902 C   0  0  0  0  0  0  0  0  0  0  0  0
    9.4919   11.0603   23.3711 C   0  0  0  0  0  0  0  0  0  0  0  0
    8.4953   10.2637   23.8677 N   0  0  0  0  0  0  0  0  0  0  0  0
    7.7896   10.9426   24.8324 C   0  0  0  0  0  0  0  0  0  0  0  0
    6.7100   10.5299   25.6233 C   0  0  0  0  0  0  0  0  0  0  0  0
  1  2  2  0
  2  3  1  0
  3  4  2  0
  4  5  1  0
  5  6  1  0
  6  7  1  0
  7  8  1  0
  9  8  1  1
  9 10  1  0
 10 11  2  0
 11 12  1  0
 12 13  2  0
 13 14  1  0
  9 15  1  0
 15 16  1  0
 16 17  1  0
  5 18  2  0
 18 19  1  0
 19 20  1  0
 20 21  2  0
 21  1  1  0
 20  4  1  0
 14 10  1  0
 17 15  1  0
M  END
>  <tags>  (249) 
{'openbind_a71ev2a_c1_knitwork_pure', 'fragmenstein_placed'}

>  <distance_score>  (249) 
0.994857

>  <ref_mols>  (249) 
A3568a,A3371a

>  <smiles>  (249) 
c1ccc2c(CCN[C@@H](c3ncc[nH]3)C3CC3)c[nH]c2c1

>  <HIPPO Pose ID>  (249) 
231408

>  <inchikey>  (249) 
MSQPPJKTFQIHMR-UHFFFAOYSA-N

>  <ref_pdb>  (249) 
A2629a

>  <alias>  (249) 
C79259-P174

>  <energy_score>  (249) 
-20.2763

>  <HIPPO Compound ID>  (249) 
47450

$$$$
C72495-P174
     RDKit          3D

 22 23  0  0  0  0  0  0  0  0999 V2000
   10.2617   14.1043   24.5309 O   0  0  0  0  0  0  0  0  0  0  0  0
   10.1336   13.4794   23.5561 C   0  0  0  0  0  0  0  0  0  0  0  0
   10.4905   13.8198   22.1008 N   0  0  0  0  0  0  0  0  0  0  0  0
   10.9948   15.0407   21.5199 C   0  0  0  0  0  0  0  0  0  0  0  0
   12.5078   14.9845   21.3836 C   0  0  0  0  0  0  0  0  0  0  0  0
   13.0334   16.0701   20.5311 C   0  0  0  0  0  0  0  0  0  0  0  0
   13.6715   17.2382   20.8716 C   0  0  0  0  0  0  0  0  0  0  0  0
   13.9708   17.9110   19.7255 O   0  0  0  0  0  0  0  0  0  0  0  0
   13.5018   17.0909   18.7421 C   0  0  0  0  0  0  0  0  0  0  0  0
   12.9322   15.9860   19.1658 N   0  0  0  0  0  0  0  0  0  0  0  0
    9.4974   12.1273   23.6913 C   0  0  0  0  0  0  0  0  0  0  0  0
    9.7417   11.0569   22.8387 C   0  0  0  0  0  0  0  0  0  0  0  0
    9.1581    9.8238   23.0894 C   0  0  0  0  0  0  0  0  0  0  0  0
    8.3504    9.6047   24.1333 N   0  0  0  0  0  0  0  0  0  0  0  0
    8.1612   10.6416   24.9584 C   0  0  0  0  0  0  0  0  0  0  0  0
    7.5966   10.3262   26.1549 O   0  0  0  0  0  0  0  0  0  0  0  0
    6.1923   10.5380   26.1334 C   0  0  0  0  0  0  0  0  0  0  0  0
    5.8476   11.9579   26.5314 C   0  0  0  0  0  0  0  0  0  0  0  0
    6.0395   12.8259   25.5190 F   0  0  0  0  0  0  0  0  0  0  0  0
    6.6160   12.3852   27.5606 F   0  0  0  0  0  0  0  0  0  0  0  0
    4.5603   12.0327   26.9392 F   0  0  0  0  0  0  0  0  0  0  0  0
    8.6907   11.9046   24.7929 C   0  0  0  0  0  0  0  0  0  0  0  0
  1  2  2  0
  2  3  1  0
  3  4  1  0
  4  5  1  0
  5  6  1  0
  6  7  2  0
  7  8  1  0
  8  9  1  0
  9 10  2  0
  2 11  1  0
 11 12  2  0
 12 13  1  0
 13 14  2  0
 14 15  1  0
 15 16  1  0
 16 17  1  0
 17 18  1  0
 18 19  1  0
 18 20  1  0
 18 21  1  0
 15 22  2  0
 10  6  1  0
 22 11  1  0
M  END
>  <tags>  (250) 
{'openbind_a71ev2a_c1_knitwork_pure', 'fragmenstein_placed'}

>  <distance_score>  (250) 
0.887057

>  <ref_mols>  (250) 
A3568a,A3371a

>  <smiles>  (250) 
O=C(NCCc1cocn1)c1ccnc(OCC(F)(F)F)c1

>  <HIPPO Pose ID>  (250) 
231449

>  <inchikey>  (250) 
QFWXRMWUAHTJTN-UHFFFAOYSA-N

>  <ref_pdb>  (250) 
A2629a

>  <alias>  (250) 
C72495-P174

>  <energy_score>  (250) 
-4.826719

>  <HIPPO Compound ID>  (250) 
72495

$$$$
C72496-P174
     RDKit          3D

 21 22  0  0  0  0  0  0  0  0999 V2000
    9.0888   14.5421   24.0000 O   0  0  0  0  0  0  0  0  0  0  0  0
    9.4208   13.7728   23.1907 C   0  0  0  0  0  0  0  0  0  0  0  0
   10.1913   13.9795   21.8740 N   0  0  0  0  0  0  0  0  0  0  0  0
   10.7996   15.1644   21.3203 C   0  0  0  0  0  0  0  0  0  0  0  0
   12.3213   15.0578   21.3604 C   0  0  0  0  0  0  0  0  0  0  0  0
   12.9638   16.0845   20.5141 C   0  0  0  0  0  0  0  0  0  0  0  0
   13.6377   17.2308   20.8595 C   0  0  0  0  0  0  0  0  0  0  0  0
   14.0200   17.8626   19.7145 O   0  0  0  0  0  0  0  0  0  0  0  0
   13.5626   17.0402   18.7276 C   0  0  0  0  0  0  0  0  0  0  0  0
   12.9350   15.9659   19.1481 N   0  0  0  0  0  0  0  0  0  0  0  0
    9.0642   12.3377   23.4164 C   0  0  0  0  0  0  0  0  0  0  0  0
    9.8881   11.2983   23.0066 C   0  0  0  0  0  0  0  0  0  0  0  0
    9.5243    9.9883   23.2796 C   0  0  0  0  0  0  0  0  0  0  0  0
    8.4113    9.6722   23.9493 N   0  0  0  0  0  0  0  0  0  0  0  0
    7.6314   10.6921   24.3300 C   0  0  0  0  0  0  0  0  0  0  0  0
    6.4360   10.3101   24.8497 O   0  0  0  0  0  0  0  0  0  0  0  0
    6.4053   10.4357   26.2611 C   0  0  0  0  0  0  0  0  0  0  0  0
    5.8549   11.7826   26.6772 C   0  0  0  0  0  0  0  0  0  0  0  0
    6.8771   12.6753   26.7450 F   0  0  0  0  0  0  0  0  0  0  0  0
    5.3325   11.6902   27.9275 F   0  0  0  0  0  0  0  0  0  0  0  0
    7.8937   12.0274   24.0870 C   0  0  0  0  0  0  0  0  0  0  0  0
  1  2  2  0
  2  3  1  0
  3  4  1  0
  4  5  1  0
  5  6  1  0
  6  7  2  0
  7  8  1  0
  8  9  1  0
  9 10  2  0
  2 11  1  0
 11 12  2  0
 12 13  1  0
 13 14  2  0
 14 15  1  0
 15 16  1  0
 16 17  1  0
 17 18  1  0
 18 19  1  0
 18 20  1  0
 15 21  2  0
 10  6  1  0
 21 11  1  0
M  END
>  <tags>  (251) 
{'openbind_a71ev2a_c1_knitwork_pure', 'fragmenstein_placed'}

>  <distance_score>  (251) 
0.968897

>  <ref_mols>  (251) 
A3568a,A3371a

>  <smiles>  (251) 
O=C(NCCc1cocn1)c1ccnc(OCC(F)F)c1

>  <HIPPO Pose ID>  (251) 
231451

>  <inchikey>  (251) 
KEJHVZLIZINKME-UHFFFAOYSA-N

>  <ref_pdb>  (251) 
A2629a

>  <alias>  (251) 
C72496-P174

>  <energy_score>  (251) 
-10.668583

>  <HIPPO Compound ID>  (251) 
52333

$$$$
C59884-P322
     RDKit          3D

 18 20  0  0  0  0  0  0  0  0999 V2000
   24.9179   17.8901   23.6754 F   0  0  0  0  0  0  0  0  0  0  0  0
   24.0831   18.8605   23.2078 C   0  0  0  0  0  0  0  0  0  0  0  0
   24.8002   19.9213   22.4167 C   0  0  0  0  0  0  0  0  0  0  0  0
   24.2456   21.2141   22.2783 C   0  0  0  0  0  0  0  0  0  0  0  0
   24.8748   22.2032   21.4992 C   0  0  0  0  0  0  0  0  0  0  0  0
   24.2834   23.5811   21.3668 C   0  0  0  0  0  0  0  0  0  0  0  0
   24.4319   24.4445   22.6345 C   0  0  1  0  0  0  0  0  0  0  0  0
   25.9027   24.7643   22.9492 C   0  0  0  0  0  0  0  0  0  0  0  0
   26.0055   25.7319   24.1252 C   0  0  0  0  0  0  0  0  0  0  0  0
   25.1474   26.9731   23.9007 C   0  0  0  0  0  0  0  0  0  0  0  0
   23.7527   26.6165   23.6404 N   0  0  0  0  0  0  0  0  0  0  0  0
   23.6354   25.7502   22.4658 C   0  0  0  0  0  0  0  0  0  0  0  0
   26.0503   21.8463   20.8603 C   0  0  0  0  0  0  0  0  0  0  0  0
   26.5958   20.5913   20.9948 C   0  0  0  0  0  0  0  0  0  0  0  0
   26.0031   19.6159   21.7674 C   0  0  0  0  0  0  0  0  0  0  0  0
   27.7471   20.4430   20.2875 O   0  0  0  0  0  0  0  0  0  0  0  0
   27.8199   21.7148   19.6205 C   0  0  0  0  0  0  0  0  0  0  0  0
   26.8001   22.6427   20.0475 O   0  0  0  0  0  0  0  0  0  0  0  0
  1  2  1  0
  2  3  1  0
  3  4  2  0
  4  5  1  0
  5  6  1  0
  7  6  1  6
  7  8  1  0
  8  9  1  0
  9 10  1  0
 10 11  1  0
 11 12  1  0
  5 13  2  0
 13 14  1  0
 14 15  2  0
 14 16  1  0
 16 17  1  0
 17 18  1  0
 15  3  1  0
 12  7  1  0
 18 13  1  0
M  END
>  <tags>  (252) 
{'openbind_a71ev2a_c1_knitwork_pure', 'fragmenstein_placed'}

>  <distance_score>  (252) 
0.395998

>  <ref_mols>  (252) 
A0351b,A4351a

>  <smiles>  (252) 
FCc1cc(C[C@H]2CCCNC2)c2c(c1)OCO2

>  <HIPPO Pose ID>  (252) 
233632

>  <inchikey>  (252) 
GSWNPYWEZMISHZ-UHFFFAOYSA-N

>  <ref_pdb>  (252) 
A2629a

>  <alias>  (252) 
C59884-P322

>  <energy_score>  (252) 
-47.456719

>  <HIPPO Compound ID>  (252) 
50277

$$$$
C55138-P204
     RDKit          3D

 24 26  0  0  0  0  0  0  0  0999 V2000
   10.1618   14.7700   25.2075 O   0  0  0  0  0  0  0  0  0  0  0  0
    9.2885   14.1615   24.6010 C   0  0  0  0  0  0  0  0  0  0  0  0
    9.5903   13.5048   23.4641 O   0  0  0  0  0  0  0  0  0  0  0  0
    7.8044   14.1017   24.9852 C   0  0  2  0  0  0  0  0  0  0  0  0
    6.9032   14.8979   24.1275 N   0  0  0  0  0  0  0  0  0  0  0  0
    6.9483   14.7406   22.4605 S   0  0  0  0  0  0  0  0  0  0  0  0
    8.0697   15.5404   22.0271 O   0  0  0  0  0  0  0  0  0  0  0  0
    6.8089   13.3627   22.0584 O   0  0  0  0  0  0  0  0  0  0  0  0
    5.4497   15.6250   22.1282 C   0  0  0  0  0  0  0  0  0  0  0  0
    4.1748   14.8086   22.0463 C   0  0  0  0  0  0  0  0  0  0  0  0
    4.0345   14.0547   20.7195 C   0  0  0  0  0  0  0  0  0  0  0  0
    2.6292   13.9432   20.3331 N   0  0  0  0  0  0  0  0  0  0  0  0
    1.8533   13.0496   21.1956 C   0  0  0  0  0  0  0  0  0  0  0  0
    0.5639   12.9178   20.4066 C   0  0  0  0  0  0  0  0  0  0  0  0
    1.0049   12.9495   18.9476 C   0  0  0  0  0  0  0  0  0  0  0  0
    2.4595   13.4049   18.9798 C   0  0  0  0  0  0  0  0  0  0  0  0
    7.5994   14.7414   26.4034 C   0  0  0  0  0  0  0  0  0  0  0  0
    6.3217   14.1084   26.9757 C   0  0  0  0  0  0  0  0  0  0  0  0
    6.4159   12.7341   26.3964 C   0  0  0  0  0  0  0  0  0  0  0  0
    5.7952   11.5868   26.8572 C   0  0  0  0  0  0  0  0  0  0  0  0
    6.0930   10.3812   26.2258 C   0  0  0  0  0  0  0  0  0  0  0  0
    6.9833   10.3373   25.1453 C   0  0  0  0  0  0  0  0  0  0  0  0
    7.5637   11.5081   24.6571 C   0  0  0  0  0  0  0  0  0  0  0  0
    7.2804   12.7111   25.2891 C   0  0  0  0  0  0  0  0  0  0  0  0
  1  2  2  0
  2  3  1  0
  2  4  1  0
  4  5  1  6
  5  6  1  0
  6  7  2  0
  6  8  2  0
  6  9  1  0
  9 10  1  0
 10 11  1  0
 11 12  1  0
 12 13  1  0
 13 14  1  0
 14 15  1  0
 15 16  1  0
  4 17  1  0
 17 18  1  0
 18 19  1  0
 19 20  2  0
 20 21  1  0
 21 22  2  0
 22 23  1  0
 23 24  2  0
 24  4  1  0
 16 12  1  0
 24 19  1  0
M  END
>  <tags>  (253) 
{'openbind_a71ev2a_c1_knitwork_pure', 'fragmenstein_placed'}

>  <distance_score>  (253) 
0.967047

>  <ref_mols>  (253) 
A3685a,A0719a

>  <smiles>  (253) 
O=C(O)[C@]1(NS(=O)(=O)CCCN2CCCC2)CCc2ccccc21

>  <HIPPO Pose ID>  (253) 
233876

>  <inchikey>  (253) 
IUKQROOWIYQEAX-UHFFFAOYSA-N

>  <ref_pdb>  (253) 
A2629a

>  <alias>  (253) 
C55138-P204

>  <energy_score>  (253) 
-51.517249

>  <HIPPO Compound ID>  (253) 
28114

$$$$
C45792-P497
     RDKit          3D

 21 23  0  0  0  0  0  0  0  0999 V2000
    4.0033   12.7607   26.7537 N   0  0  0  0  0  0  0  0  0  0  0  0
    5.2128   12.9727   27.5430 C   0  0  0  0  0  0  0  0  0  0  0  0
    6.3362   12.0083   27.1667 C   0  0  0  0  0  0  0  0  0  0  0  0
    6.9308   12.3341   25.8127 C   0  0  1  0  0  0  0  0  0  0  0  0
    7.7639   13.6211   25.7735 C   0  0  0  0  0  0  0  0  0  0  0  0
    8.7392   13.4289   24.6410 N   0  0  0  0  0  0  0  0  0  0  0  0
    8.2719   14.2628   23.2127 S   0  0  0  0  0  0  0  0  0  0  0  0
    7.4734   13.3669   22.3997 O   0  0  0  0  0  0  0  0  0  0  0  0
    7.7648   15.5564   23.6239 O   0  0  0  0  0  0  0  0  0  0  0  0
    9.8413   14.5384   22.4228 C   0  0  2  0  0  0  0  0  0  0  0  0
   10.8867   15.1027   23.3817 C   0  0  0  0  0  0  0  0  0  0  0  0
   12.1883   15.2702   22.6204 C   0  0  0  0  0  0  0  0  0  0  0  0
   12.0043   16.1345   21.3778 C   0  0  0  0  0  0  0  0  0  0  0  0
   10.9530   15.6212   20.4943 N   0  0  0  0  0  0  0  0  0  0  0  0
    9.6812   15.4653   21.2212 C   0  0  0  0  0  0  0  0  0  0  0  0
    8.8640   12.0013   24.5030 C   0  0  0  0  0  0  0  0  0  0  0  0
    9.7604   11.3001   23.7265 C   0  0  0  0  0  0  0  0  0  0  0  0
    9.6787    9.9096   23.7254 C   0  0  0  0  0  0  0  0  0  0  0  0
    8.7452    9.2547   24.5265 C   0  0  0  0  0  0  0  0  0  0  0  0
    7.8419    9.9635   25.3080 C   0  0  0  0  0  0  0  0  0  0  0  0
    7.9034   11.3421   25.2676 C   0  0  0  0  0  0  0  0  0  0  0  0
  1  2  1  0
  2  3  1  0
  4  3  1  1
  4  5  1  0
  5  6  1  0
  6  7  1  0
  7  8  2  0
  7  9  2  0
 10  7  1  1
 10 11  1  0
 11 12  1  0
 12 13  1  0
 13 14  1  0
 14 15  1  0
  6 16  1  0
 16 17  2  0
 17 18  1  0
 18 19  2  0
 19 20  1  0
 20 21  2  0
 21  4  1  0
 15 10  1  0
 21 16  1  0
M  END
>  <tags>  (254) 
{'openbind_a71ev2a_c1_knitwork_pure', 'fragmenstein_placed'}

>  <distance_score>  (254) 
0.860016

>  <ref_mols>  (254) 
A4877b,A1778a

>  <smiles>  (254) 
NCC[C@H]1CN(S(=O)(=O)[C@@H]2CCCNC2)c2ccccc21

>  <HIPPO Pose ID>  (254) 
233939

>  <inchikey>  (254) 
CFQKQNUEMBXROS-UHFFFAOYSA-N

>  <ref_pdb>  (254) 
A2629a

>  <alias>  (254) 
C45792-P497

>  <energy_score>  (254) 
-39.544905

>  <HIPPO Compound ID>  (254) 
45749

$$$$
C19322-P22
     RDKit          3D

 13 13  0  0  0  0  0  0  0  0999 V2000
    6.9715   16.1076   22.0110 N   0  0  0  0  0  0  0  0  0  0  0  0
    7.8004   14.8876   22.7680 S   0  0  0  0  0  0  0  0  0  0  0  0
    9.1516   15.3850   22.7499 O   0  0  0  0  0  0  0  0  0  0  0  0
    7.4135   13.6295   22.1614 O   0  0  0  0  0  0  0  0  0  0  0  0
    7.0645   15.0539   24.3745 C   0  0  0  0  0  0  0  0  0  0  0  0
    7.7986   14.4729   25.5591 C   0  0  0  0  0  0  0  0  0  0  0  0
    7.7886   12.9554   25.6352 C   0  0  0  0  0  0  0  0  0  0  0  0
    8.6402   12.2575   24.7093 N   0  0  0  0  0  0  0  0  0  0  0  0
    8.5171   10.8414   24.5502 C   0  0  0  0  0  0  0  0  0  0  0  0
    9.6299   10.4202   23.6186 C   0  0  0  0  0  0  0  0  0  0  0  0
   10.4299   11.6792   23.3385 C   0  0  0  0  0  0  0  0  0  0  0  0
    9.8731   12.6974   24.2690 C   0  0  0  0  0  0  0  0  0  0  0  0
   10.4324   13.7364   24.5607 O   0  0  0  0  0  0  0  0  0  0  0  0
  1  2  1  0
  2  3  2  0
  2  4  2  0
  2  5  1  0
  5  6  1  0
  6  7  1  0
  7  8  1  0
  8  9  1  0
  9 10  1  0
 10 11  1  0
 11 12  1  0
 12 13  2  0
 12  8  1  0
M  END
>  <tags>  (255) 
{'openbind_a71ev2a_c1_knitwork_pure', 'fragmenstein_placed'}

>  <distance_score>  (255) 
0.844342

>  <ref_mols>  (255) 
A0719a,A0528a

>  <smiles>  (255) 
NS(=O)(=O)CCCN1CCCC1=O

>  <HIPPO Pose ID>  (255) 
234229

>  <inchikey>  (255) 
DMMWSHAZVFYQCP-UHFFFAOYSA-N

>  <ref_pdb>  (255) 
A2629a

>  <alias>  (255) 
C19322-P22

>  <energy_score>  (255) 
-15.364017

>  <HIPPO Compound ID>  (255) 
45909

$$$$
C76028-P273
     RDKit          3D

 20 22  0  0  0  0  0  0  0  0999 V2000
   11.1094   14.6557   25.0003 O   0  0  0  0  0  0  0  0  0  0  0  0
   11.1089   14.8638   23.7843 C   0  0  0  0  0  0  0  0  0  0  0  0
   12.4575   14.9699   23.1194 C   0  0  0  0  0  0  0  0  0  0  0  0
   12.4525   15.8330   21.8821 C   0  0  0  0  0  0  0  0  0  0  0  0
   11.5250   15.1694   20.9020 C   0  0  0  0  0  0  0  0  0  0  0  0
   10.1254   15.1427   21.4850 C   0  0  0  0  0  0  0  0  0  0  0  0
    9.9907   14.9185   22.9471 N   0  0  0  0  0  0  0  0  0  0  0  0
    8.6334   14.8657   23.4561 C   0  0  0  0  0  0  0  0  0  0  0  0
    8.3077   14.7707   24.8121 C   0  0  0  0  0  0  0  0  0  0  0  0
    6.9770   14.6639   25.2360 C   0  0  0  0  0  0  0  0  0  0  0  0
    5.9359   14.6601   24.3103 C   0  0  0  0  0  0  0  0  0  0  0  0
    6.2101   14.8110   22.9591 C   0  0  0  0  0  0  0  0  0  0  0  0
    5.2792   14.7532   21.9366 N   0  0  0  0  0  0  0  0  0  0  0  0
    3.8577   14.5924   22.1596 C   0  0  0  0  0  0  0  0  0  0  0  0
    3.1377   14.2394   20.9058 C   0  0  0  0  0  0  0  0  0  0  0  0
    3.1118   13.0272   20.2545 C   0  0  0  0  0  0  0  0  0  0  0  0
    2.3824   13.1732   19.1175 O   0  0  0  0  0  0  0  0  0  0  0  0
    2.0055   14.4812   19.1411 C   0  0  0  0  0  0  0  0  0  0  0  0
    2.4400   15.1749   20.1730 N   0  0  0  0  0  0  0  0  0  0  0  0
    7.5510   14.9059   22.5636 C   0  0  0  0  0  0  0  0  0  0  0  0
  1  2  2  0
  2  3  1  0
  3  4  1  0
  4  5  1  0
  5  6  1  0
  6  7  1  0
  7  8  1  0
  8  9  2  0
  9 10  1  0
 10 11  2  0
 11 12  1  0
 12 13  1  0
 13 14  1  0
 14 15  1  0
 15 16  2  0
 16 17  1  0
 17 18  1  0
 18 19  2  0
 12 20  2  0
  7  2  1  0
 20  8  1  0
 19 15  1  0
M  END
>  <tags>  (256) 
{'openbind_a71ev2a_c1_knitwork_pure', 'fragmenstein_placed'}

>  <distance_score>  (256) 
0.737605

>  <ref_mols>  (256) 
A3623a,A4029a

>  <smiles>  (256) 
O=C1CCCCN1c1cccc(NCc2cocn2)c1

>  <HIPPO Pose ID>  (256) 
235861

>  <inchikey>  (256) 
ZMLNPERFMPNMTQ-UHFFFAOYSA-N

>  <ref_pdb>  (256) 
A2629a

>  <alias>  (256) 
C76028-P273

>  <energy_score>  (256) 
-28.340751

>  <HIPPO Compound ID>  (256) 
46644

$$$$
C51396-P274
     RDKit          3D

 18 18  0  0  0  0  0  0  0  0999 V2000
    8.3553   16.1882   21.8558 C   0  0  0  0  0  0  0  0  0  0  0  0
    9.7997   15.9420   22.2853 C   0  0  1  0  0  0  0  0  0  0  0  0
    9.8909   15.0941   23.5556 C   0  0  0  0  0  0  0  0  0  0  0  0
    9.3748   13.6758   23.3882 C   0  0  0  0  0  0  0  0  0  0  0  0
    9.7603   12.9745   22.5340 O   0  0  0  0  0  0  0  0  0  0  0  0
    8.3776   13.3958   24.5459 N   0  0  0  0  0  0  0  0  0  0  0  0
    7.7421   12.2141   24.9302 C   0  0  0  0  0  0  0  0  0  0  0  0
    8.1979   11.0070   24.4009 C   0  0  0  0  0  0  0  0  0  0  0  0
    7.6422    9.8276   24.8592 C   0  0  0  0  0  0  0  0  0  0  0  0
    6.6431    9.7701   25.7696 N   0  0  0  0  0  0  0  0  0  0  0  0
    6.1855   10.9557   26.2356 C   0  0  0  0  0  0  0  0  0  0  0  0
    6.7012   12.1897   25.8617 C   0  0  0  0  0  0  0  0  0  0  0  0
    6.1556   13.3718   26.4412 C   0  0  0  0  0  0  0  0  0  0  0  0
    5.7381   14.3222   26.9615 N   0  0  0  0  0  0  0  0  0  0  0  0
   10.6671   15.5091   21.1123 C   0  0  0  0  0  0  0  0  0  0  0  0
   11.8701   15.0872   21.5468 F   0  0  0  0  0  0  0  0  0  0  0  0
   10.0955   14.5711   20.3531 F   0  0  0  0  0  0  0  0  0  0  0  0
   10.8787   16.5850   20.3190 F   0  0  0  0  0  0  0  0  0  0  0  0
  2  1  1  6
  2  3  1  0
  3  4  1  0
  4  5  2  0
  4  6  1  0
  6  7  1  0
  7  8  2  0
  8  9  1  0
  9 10  2  0
 10 11  1  0
 11 12  2  0
 12 13  1  0
 13 14  3  0
  2 15  1  0
 15 16  1  0
 15 17  1  0
 15 18  1  0
 12  7  1  0
M  END
>  <tags>  (257) 
{'openbind_a71ev2a_c1_knitwork_pure', 'fragmenstein_placed'}

>  <distance_score>  (257) 
0.849529

>  <ref_mols>  (257) 
A1445a,A4031a

>  <smiles>  (257) 
C[C@@H](CC(=O)Nc1ccncc1C#N)C(F)(F)F

>  <HIPPO Pose ID>  (257) 
237118

>  <inchikey>  (257) 
BLIHSGRIXMRDOE-UHFFFAOYSA-N

>  <ref_pdb>  (257) 
A2629a

>  <alias>  (257) 
C51396-P274

>  <energy_score>  (257) 
-16.662124

>  <HIPPO Compound ID>  (257) 
50954

$$$$
C51403-P274
     RDKit          3D

 21 21  0  0  0  0  0  0  0  0999 V2000
    7.9953   15.5218   22.0315 C   0  0  0  0  0  0  0  0  0  0  0  0
    9.4627   15.2952   22.3828 C   0  0  0  0  0  0  0  0  0  0  0  0
   10.2632   14.9034   21.1446 C   0  0  0  0  0  0  0  0  0  0  0  0
    9.6027   14.2679   23.5155 C   0  0  0  0  0  0  0  0  0  0  0  0
    9.0896   12.9845   23.1409 O   0  0  0  0  0  0  0  0  0  0  0  0
    8.3297   12.3708   24.1082 C   0  0  0  0  0  0  0  0  0  0  0  0
    8.3665   10.9867   24.1833 C   0  0  0  0  0  0  0  0  0  0  0  0
    7.5199   10.3371   25.0885 C   0  0  0  0  0  0  0  0  0  0  0  0
    6.6405   11.0882   25.8600 C   0  0  0  0  0  0  0  0  0  0  0  0
    5.7945   10.4805   26.7876 N   0  0  0  0  0  0  0  0  0  0  0  0
    4.7024   11.0953   27.7159 C   0  0  0  0  0  0  0  0  0  0  0  0
    4.2971   12.1881   27.7856 O   0  0  0  0  0  0  0  0  0  0  0  0
    4.2742    9.9831   28.6689 C   0  0  0  0  0  0  0  0  0  0  0  0
    3.3909   10.4149   29.8578 C   0  0  1  0  0  0  0  0  0  0  0  0
    3.8770   11.6784   30.5733 C   0  0  0  0  0  0  0  0  0  0  0  0
    1.9128   10.5267   29.5190 C   0  0  0  0  0  0  0  0  0  0  0  0
    1.1932   10.7089   30.6500 F   0  0  0  0  0  0  0  0  0  0  0  0
    1.4761    9.3825   28.9415 F   0  0  0  0  0  0  0  0  0  0  0  0
    1.6325   11.5336   28.6759 F   0  0  0  0  0  0  0  0  0  0  0  0
    6.6592   12.4678   25.6862 C   0  0  0  0  0  0  0  0  0  0  0  0
    7.5002   13.1210   24.8489 N   0  0  0  0  0  0  0  0  0  0  0  0
  1  2  1  0
  2  3  1  0
  2  4  1  0
  4  5  1  0
  5  6  1  0
  6  7  2  0
  7  8  1  0
  8  9  2  0
  9 10  1  0
 10 11  1  0
 11 12  2  0
 11 13  1  0
 13 14  1  0
 14 15  1  6
 14 16  1  0
 16 17  1  0
 16 18  1  0
 16 19  1  0
  9 20  1  0
 20 21  2  0
 21  6  1  0
M  END
>  <tags>  (258) 
{'openbind_a71ev2a_c1_knitwork_pure', 'fragmenstein_placed'}

>  <distance_score>  (258) 
0.872055

>  <ref_mols>  (258) 
A1445a,A4031a

>  <smiles>  (258) 
CC(C)COc1ccc(NC(=O)C[C@@H](C)C(F)(F)F)cn1

>  <HIPPO Pose ID>  (258) 
237122

>  <inchikey>  (258) 
XPJXWZTUMKSLEF-UHFFFAOYSA-N

>  <ref_pdb>  (258) 
A2629a

>  <alias>  (258) 
C51403-P274

>  <energy_score>  (258) 
-31.80852

>  <HIPPO Compound ID>  (258) 
55684

$$$$
C45982-P244
     RDKit          3D

 23 26  0  0  0  0  0  0  0  0999 V2000
    7.7734   13.2613   22.6469 O   0  0  0  0  0  0  0  0  0  0  0  0
    8.9050   13.4519   23.5372 S   0  0  0  0  0  0  0  0  0  0  0  0
   10.0658   12.5858   23.4836 O   0  0  0  0  0  0  0  0  0  0  0  0
    9.3963   15.1860   23.4836 C   0  0  1  0  0  0  0  0  0  0  0  0
   10.5543   15.4915   24.4426 C   0  0  0  0  0  0  0  0  0  0  0  0
   11.9102   15.1018   23.8608 C   0  0  0  0  0  0  0  0  0  0  0  0
   12.0794   15.7192   22.4848 C   0  0  0  0  0  0  0  0  0  0  0  0
   11.0052   15.2213   21.6437 N   0  0  0  0  0  0  0  0  0  0  0  0
   11.2814   15.3227   20.3360 C   0  0  0  0  0  0  0  0  0  0  0  0
   11.8436   14.4302   19.5658 N   0  0  0  0  0  0  0  0  0  0  0  0
   11.9684   15.0535   18.3805 C   0  0  0  0  0  0  0  0  0  0  0  0
   11.6116   16.3612   18.5173 C   0  0  0  0  0  0  0  0  0  0  0  0
   11.1021   16.5435   19.7558 O   0  0  0  0  0  0  0  0  0  0  0  0
    9.6699   15.6250   22.0491 C   0  0  0  0  0  0  0  0  0  0  0  0
    8.3017   13.3275   25.1359 N   0  0  0  0  0  0  0  0  0  0  0  0
    7.2906   14.3478   25.5662 C   0  0  0  0  0  0  0  0  0  0  0  0
    6.4638   13.6921   26.6784 C   0  0  0  0  0  0  0  0  0  0  0  0
    6.6553   12.2476   26.3697 C   0  0  0  0  0  0  0  0  0  0  0  0
    5.9423   11.1778   26.8813 C   0  0  0  0  0  0  0  0  0  0  0  0
    6.2954    9.8989   26.4631 C   0  0  0  0  0  0  0  0  0  0  0  0
    7.3655    9.7147   25.5772 C   0  0  0  0  0  0  0  0  0  0  0  0
    8.1016   10.7950   25.0946 C   0  0  0  0  0  0  0  0  0  0  0  0
    7.7082   12.0624   25.4717 C   0  0  0  0  0  0  0  0  0  0  0  0
  1  2  2  0
  2  3  2  0
  4  2  1  6
  4  5  1  0
  5  6  1  0
  6  7  1  0
  7  8  1  0
  8  9  1  0
  9 10  2  0
 10 11  1  0
 11 12  2  0
 12 13  1  0
  8 14  1  0
  2 15  1  0
 15 16  1  0
 16 17  1  0
 17 18  1  0
 18 19  2  0
 19 20  1  0
 20 21  2  0
 21 22  1  0
 22 23  2  0
 14  4  1  0
 23 15  1  0
 13  9  1  0
 23 18  1  0
M  END
>  <tags>  (259) 
{'openbind_a71ev2a_c1_knitwork_pure', 'fragmenstein_placed'}

>  <distance_score>  (259) 
0.808765

>  <ref_mols>  (259) 
A1778a,A3940a

>  <smiles>  (259) 
O=S(=O)([C@H]1CCCN(c2ncco2)C1)N1CCc2ccccc21

>  <HIPPO Pose ID>  (259) 
237296

>  <inchikey>  (259) 
JRWNVUPFKXEMMQ-UHFFFAOYSA-N

>  <ref_pdb>  (259) 
A2629a

>  <alias>  (259) 
C45982-P244

>  <energy_score>  (259) 
-57.853784

>  <HIPPO Compound ID>  (259) 
50179

$$$$
C98152-P58
     RDKit          3D

 24 27  0  0  0  0  0  0  0  0999 V2000
   11.6706   23.4244   24.4672 C   0  0  0  0  0  0  0  0  0  0  0  0
   11.8703   23.0715   25.9527 C   0  0  2  0  0  0  0  0  0  0  0  0
   13.2411   22.4429   26.1307 C   0  0  0  0  0  0  0  0  0  0  0  0
   14.0739   22.6023   27.1493 N   0  0  0  0  0  0  0  0  0  0  0  0
   15.1930   21.9094   26.7654 C   0  0  0  0  0  0  0  0  0  0  0  0
   16.4144   21.6969   27.4183 C   0  0  0  0  0  0  0  0  0  0  0  0
   17.4038   20.9581   26.7506 C   0  0  0  0  0  0  0  0  0  0  0  0
   17.1831   20.4510   25.4638 C   0  0  0  0  0  0  0  0  0  0  0  0
   15.9680   20.6565   24.7996 C   0  0  0  0  0  0  0  0  0  0  0  0
   15.0095   21.3807   25.4992 C   0  0  0  0  0  0  0  0  0  0  0  0
   13.7508   21.7071   25.0874 O   0  0  0  0  0  0  0  0  0  0  0  0
   10.7606   22.2538   26.5022 N   0  0  0  0  0  0  0  0  0  0  0  0
    9.4253   22.7847   26.1864 C   0  0  0  0  0  0  0  0  0  0  0  0
    8.3033   22.0590   26.9582 C   0  0  0  0  0  0  0  0  0  0  0  0
    8.3796   22.2028   28.4196 N   0  0  0  0  0  0  0  0  0  0  0  0
    7.7315   21.1308   29.1973 C   0  0  2  0  0  0  0  0  0  0  0  0
    8.5920   19.8898   29.4614 C   0  0  0  0  0  0  0  0  0  0  0  0
    7.7260   18.9304   30.2549 C   0  0  0  0  0  0  0  0  0  0  0  0
    6.1436   19.0187   29.4604 S   0  0  0  0  0  0  0  0  0  0  0  0
    6.1059   17.9418   28.4933 O   0  0  0  0  0  0  0  0  0  0  0  0
    5.1274   19.1883   30.4776 O   0  0  0  0  0  0  0  0  0  0  0  0
    6.4104   20.5770   28.6200 C   0  0  0  0  0  0  0  0  0  0  0  0
    9.7515   22.5413   28.8453 C   0  0  0  0  0  0  0  0  0  0  0  0
   10.8917   21.9789   27.9513 C   0  0  0  0  0  0  0  0  0  0  0  0
  2  1  1  6
  2  3  1  0
  3  4  2  0
  4  5  1  0
  5  6  2  0
  6  7  1  0
  7  8  2  0
  8  9  1  0
  9 10  2  0
 10 11  1  0
  2 12  1  0
 12 13  1  0
 13 14  1  0
 14 15  1  0
 16 15  1  6
 16 17  1  0
 17 18  1  0
 18 19  1  0
 19 20  2  0
 19 21  2  0
 19 22  1  0
 15 23  1  0
 23 24  1  0
 11  3  1  0
 24 12  1  0
 10  5  1  0
 22 16  1  0
M  END
>  <tags>  (260) 
{'openbind_a71ev2a_c1_knitwork_pure', 'fragmenstein_placed'}

>  <distance_score>  (260) 
0.781346

>  <ref_mols>  (260) 
A0354a,A0469a

>  <smiles>  (260) 
C[C@H](c1nc2ccccc2o1)N1CCN([C@@H]2CCS(=O)(=O)C2)CC1

>  <HIPPO Pose ID>  (260) 
238047

>  <inchikey>  (260) 
VZPBIZGIEVBAAL-UHFFFAOYSA-N

>  <ref_pdb>  (260) 
A3897a

>  <alias>  (260) 
C98152-P58

>  <energy_score>  (260) 
-57.825262

>  <HIPPO Compound ID>  (260) 
98152

$$$$
C45884-P374
     RDKit          3D

 22 25  0  0  0  0  0  0  0  0999 V2000
   26.3224   20.4837   20.9966 C   0  0  0  0  0  0  0  0  0  0  0  0
   25.7660   21.4806   21.7537 C   0  0  0  0  0  0  0  0  0  0  0  0
   26.5636   22.5786   21.9925 C   0  0  0  0  0  0  0  0  0  0  0  0
   26.0669   23.6488   22.7678 N   0  0  0  0  0  0  0  0  0  0  0  0
   26.6603   24.9591   22.7967 C   0  0  0  0  0  0  0  0  0  0  0  0
   25.3064   25.4778   23.3419 C   0  0  0  0  0  0  0  0  0  0  0  0
   24.8446   26.7859   22.6840 C   0  0  0  0  0  0  0  0  0  0  0  0
   23.7747   27.4337   23.5549 C   0  0  0  0  0  0  0  0  0  0  0  0
   24.3336   27.7679   24.9442 C   0  0  0  0  0  0  0  0  0  0  0  0
   25.3833   26.8492   25.3953 N   0  0  0  0  0  0  0  0  0  0  0  0
   25.1888   25.4955   24.8767 C   0  0  0  0  0  0  0  0  0  0  0  0
   24.7355   24.1814   22.7089 C   0  0  0  0  0  0  0  0  0  0  0  0
   27.8264   22.6444   21.5343 N   0  0  0  0  0  0  0  0  0  0  0  0
   28.2881   21.6146   20.8107 C   0  0  0  0  0  0  0  0  0  0  0  0
   29.6172   21.7062   20.4370 N   0  0  0  0  0  0  0  0  0  0  0  0
   29.9560   21.2989   19.0807 C   0  0  2  0  0  0  0  0  0  0  0  0
   31.4674   21.0227   19.0055 C   0  0  0  0  0  0  0  0  0  0  0  0
   32.2635   22.2152   18.4703 C   0  0  0  0  0  0  0  0  0  0  0  0
   31.6307   23.5497   18.8545 C   0  0  0  0  0  0  0  0  0  0  0  0
   30.2441   23.7014   18.4030 N   0  0  0  0  0  0  0  0  0  0  0  0
   29.5803   22.4207   18.0919 C   0  0  0  0  0  0  0  0  0  0  0  0
   27.5623   20.5392   20.4910 N   0  0  0  0  0  0  0  0  0  0  0  0
  1  2  2  0
  2  3  1  0
  3  4  1  0
  4  5  1  0
  5  6  1  0
  6  7  1  0
  7  8  1  0
  8  9  1  0
  9 10  1  0
 10 11  1  0
  6 12  1  0
  3 13  2  0
 13 14  1  0
 14 15  1  0
 16 15  1  1
 16 17  1  0
 17 18  1  0
 18 19  1  0
 19 20  1  0
 20 21  1  0
 14 22  2  0
 22  1  1  0
 12  4  1  0
 21 16  1  0
 11  6  1  0
M  END
>  <tags>  (261) 
{'openbind_a71ev2a_c1_knitwork_pure', 'fragmenstein_placed'}

>  <distance_score>  (261) 
0.67518

>  <ref_mols>  (261) 
A1146a,A4463a

>  <smiles>  (261) 
c1cc(N2CC3(CCCNC3)C2)nc(N[C@@H]2CCCNC2)n1

>  <HIPPO Pose ID>  (261) 
239745

>  <inchikey>  (261) 
YLTDZWFXEQMEQY-UHFFFAOYSA-N

>  <ref_pdb>  (261) 
A3897a

>  <alias>  (261) 
C45884-P374

>  <energy_score>  (261) 
-49.666313

>  <HIPPO Compound ID>  (261) 
47396

$$$$
C51427-P384
     RDKit          3D

 23 25  0  0  0  0  0  0  0  0999 V2000
    3.0415   15.1563   25.0328 C   0  0  0  0  0  0  0  0  0  0  0  0
    2.9340   15.4382   23.5375 C   0  0  0  0  0  0  0  0  0  0  0  0
    3.8854   14.5689   22.6976 C   0  0  2  0  0  0  0  0  0  0  0  0
    5.2805   14.8591   22.9830 N   0  0  0  0  0  0  0  0  0  0  0  0
    6.5324   14.0007   22.7966 C   0  0  0  0  0  0  0  0  0  0  0  0
    6.6617   12.9517   22.3137 O   0  0  0  0  0  0  0  0  0  0  0  0
    7.6843   14.6260   23.4343 C   0  0  0  0  0  0  0  0  0  0  0  0
    8.0589   15.9326   23.2280 N   0  0  0  0  0  0  0  0  0  0  0  0
    9.1638   16.0525   23.9238 C   0  0  0  0  0  0  0  0  0  0  0  0
    9.4893   14.9704   24.6752 O   0  0  0  0  0  0  0  0  0  0  0  0
    8.5536   14.0279   24.3365 C   0  0  0  0  0  0  0  0  0  0  0  0
    8.7633   12.6921   24.9756 C   0  0  2  0  0  0  0  0  0  0  0  0
    9.8463   11.9108   24.2127 C   0  0  0  0  0  0  0  0  0  0  0  0
    9.2829   10.6396   23.6139 C   0  0  0  0  0  0  0  0  0  0  0  0
    8.6082    9.7746   24.6641 C   0  0  0  0  0  0  0  0  0  0  0  0
    7.7366   10.4937   25.5974 N   0  0  0  0  0  0  0  0  0  0  0  0
    7.4737   11.8776   25.2030 C   0  0  0  0  0  0  0  0  0  0  0  0
    3.5233   14.4897   21.2145 C   0  0  0  0  0  0  0  0  0  0  0  0
    3.9241   13.3731   20.4677 C   0  0  0  0  0  0  0  0  0  0  0  0
    3.4285   13.1585   19.1865 C   0  0  0  0  0  0  0  0  0  0  0  0
    2.5286   14.0703   18.6795 C   0  0  0  0  0  0  0  0  0  0  0  0
    2.2087   15.1798   19.4498 C   0  0  0  0  0  0  0  0  0  0  0  0
    2.6968   15.4291   20.6904 N   0  0  0  0  0  0  0  0  0  0  0  0
  1  2  1  0
  3  2  1  6
  3  4  1  0
  4  5  1  0
  5  6  2  0
  5  7  1  0
  7  8  1  0
  8  9  2  0
  9 10  1  0
 10 11  1  0
 12 11  1  6
 12 13  1  0
 13 14  1  0
 14 15  1  0
 15 16  1  0
 16 17  1  0
  3 18  1  0
 18 19  2  0
 19 20  1  0
 20 21  2  0
 21 22  1  0
 22 23  2  0
 11  7  2  0
 17 12  1  0
 23 18  1  0
M  END
>  <tags>  (262) 
{'openbind_a71ev2a_c1_knitwork_pure', 'fragmenstein_placed'}

>  <distance_score>  (262) 
0.929489

>  <ref_mols>  (262) 
A3623a,A4509a

>  <smiles>  (262) 
CC[C@H](NC(=O)c1ncoc1[C@@H]1CCCNC1)c1ccccn1

>  <HIPPO Pose ID>  (262) 
240921

>  <inchikey>  (262) 
OZOCKCQNPSVVFB-UHFFFAOYSA-N

>  <ref_pdb>  (262) 
A3897a

>  <alias>  (262) 
C51427-P384

>  <energy_score>  (262) 
-9.006664

>  <HIPPO Compound ID>  (262) 
50784

$$$$
C48037-P492
     RDKit          3D

 21 22  0  0  0  0  0  0  0  0999 V2000
   11.7894   14.8796   22.9559 C   0  0  0  0  0  0  0  0  0  0  0  0
   10.4968   15.4671   23.4973 C   0  0  0  0  0  0  0  0  0  0  0  0
    9.2645   15.0199   22.7257 C   0  0  0  0  0  0  0  0  0  0  0  0
    8.7022   13.3708   23.1149 S   0  0  0  0  0  0  0  0  0  0  0  0
    7.4938   13.1215   22.3570 O   0  0  0  0  0  0  0  0  0  0  0  0
    9.8074   12.4414   23.1014 O   0  0  0  0  0  0  0  0  0  0  0  0
    8.3016   13.5038   24.7492 N   0  0  0  0  0  0  0  0  0  0  0  0
    7.3924   12.5010   25.2167 C   0  0  0  0  0  0  0  0  0  0  0  0
    6.2232   12.9366   25.8207 C   0  0  0  0  0  0  0  0  0  0  0  0
    5.3651   12.0195   26.4262 C   0  0  0  0  0  0  0  0  0  0  0  0
    5.6786   10.6573   26.4654 C   0  0  0  0  0  0  0  0  0  0  0  0
    4.8310    9.6409   27.2087 C   0  0  0  0  0  0  0  0  0  0  0  0
    3.6322   10.1811   28.0211 C   0  0  0  0  0  0  0  0  0  0  0  0
    3.0234    9.2909   29.0284 N   0  0  0  0  0  0  0  0  0  0  0  0
    2.6998    7.9605   28.4977 C   0  0  0  0  0  0  0  0  0  0  0  0
    1.9102    7.1478   29.5261 C   0  0  0  0  0  0  0  0  0  0  0  0
    2.6571    7.0492   30.8519 C   0  0  0  0  0  0  0  0  0  0  0  0
    3.0869    8.4289   31.3347 C   0  0  0  0  0  0  0  0  0  0  0  0
    3.8413    9.1887   30.2425 C   0  0  0  0  0  0  0  0  0  0  0  0
    6.8432   10.2291   25.8069 C   0  0  0  0  0  0  0  0  0  0  0  0
    7.7024   11.1428   25.1916 C   0  0  0  0  0  0  0  0  0  0  0  0
  1  2  1  0
  2  3  1  0
  3  4  1  0
  4  5  2  0
  4  6  2  0
  4  7  1  0
  7  8  1  0
  8  9  2  0
  9 10  1  0
 10 11  2  0
 11 12  1  0
 12 13  1  0
 13 14  1  0
 14 15  1  0
 15 16  1  0
 16 17  1  0
 17 18  1  0
 18 19  1  0
 11 20  1  0
 20 21  2  0
 21  8  1  0
 19 14  1  0
M  END
>  <tags>  (263) 
{'openbind_a71ev2a_c1_knitwork_pure', 'fragmenstein_placed'}

>  <distance_score>  (263) 
0.963795

>  <ref_mols>  (263) 
A4873a,A0719a

>  <smiles>  (263) 
CCCS(=O)(=O)Nc1ccc(CCN2CCCCC2)cc1

>  <HIPPO Pose ID>  (263) 
241190

>  <inchikey>  (263) 
JJWFKWAOMFMQRZ-UHFFFAOYSA-N

>  <ref_pdb>  (263) 
A3897a

>  <alias>  (263) 
C48037-P492

>  <energy_score>  (263) 
-48.296618

>  <HIPPO Compound ID>  (263) 
46779

$$$$
C99430-P339
     RDKit          3D

 19 21  0  0  0  0  0  0  0  0999 V2000
    6.5831   13.7084   25.9121 O   0  0  0  0  0  0  0  0  0  0  0  0
    7.6968   14.1923   25.7172 C   0  0  0  0  0  0  0  0  0  0  0  0
    8.7392   13.4636   24.8841 C   0  0  0  0  0  0  0  0  0  0  0  0
    8.8490   13.9989   23.4534 C   0  0  0  0  0  0  0  0  0  0  0  0
    9.3535   15.3744   23.3564 N   0  0  0  0  0  0  0  0  0  0  0  0
   10.7682   15.5325   23.7363 C   0  0  0  0  0  0  0  0  0  0  0  0
   11.7979   15.0737   22.6888 C   0  0  0  0  0  0  0  0  0  0  0  0
   11.5890   15.6791   21.3759 N   0  0  0  0  0  0  0  0  0  0  0  0
   10.2041   15.4384   20.9406 C   0  0  0  0  0  0  0  0  0  0  0  0
    9.1641   15.9158   21.9826 C   0  0  0  0  0  0  0  0  0  0  0  0
    8.0348   15.4988   26.3504 C   0  0  0  0  0  0  0  0  0  0  0  0
    9.2990   15.7121   26.9173 C   0  0  0  0  0  0  0  0  0  0  0  0
    9.6410   16.9342   27.5085 C   0  0  0  0  0  0  0  0  0  0  0  0
    8.6467   17.9101   27.5442 C   0  0  0  0  0  0  0  0  0  0  0  0
    8.6290   19.1884   28.0432 N   0  0  0  0  0  0  0  0  0  0  0  0
    7.3733   19.6935   27.8752 C   0  0  0  0  0  0  0  0  0  0  0  0
    6.5818   18.8227   27.2943 N   0  0  0  0  0  0  0  0  0  0  0  0
    7.3621   17.7154   27.0460 C   0  0  0  0  0  0  0  0  0  0  0  0
    7.0453   16.4950   26.4222 C   0  0  0  0  0  0  0  0  0  0  0  0
  1  2  2  0
  2  3  1  0
  3  4  1  0
  4  5  1  0
  5  6  1  0
  6  7  1  0
  7  8  1  0
  8  9  1  0
  9 10  1  0
  2 11  1  0
 11 12  2  0
 12 13  1  0
 13 14  2  0
 14 15  1  0
 15 16  1  0
 16 17  2  0
 17 18  1  0
 18 19  2  0
 10  5  1  0
 19 11  1  0
 18 14  1  0
M  END
>  <tags>  (264) 
{'openbind_a71ev2a_c1_knitwork_pure', 'fragmenstein_placed'}

>  <distance_score>  (264) 
0.909756

>  <ref_mols>  (264) 
A4237b,A0469a

>  <smiles>  (264) 
O=C(CCN1CCNCC1)c1ccc2[nH]cnc2c1

>  <HIPPO Pose ID>  (264) 
242098

>  <inchikey>  (264) 
OHXVFTFJECSKFY-UHFFFAOYSA-N

>  <ref_pdb>  (264) 
A3897a

>  <alias>  (264) 
C99430-P339

>  <energy_score>  (264) 
-24.134172

>  <HIPPO Compound ID>  (264) 
55076

$$$$
C51749-P174
     RDKit          3D

 22 23  0  0  0  0  0  0  0  0999 V2000
    9.1841   14.2911   24.2404 O   0  0  0  0  0  0  0  0  0  0  0  0
    9.4249   13.5571   23.3650 C   0  0  0  0  0  0  0  0  0  0  0  0
   10.0847   13.8185   21.9904 N   0  0  0  0  0  0  0  0  0  0  0  0
   10.5004   15.0585   21.3666 C   0  0  0  0  0  0  0  0  0  0  0  0
   12.0264   15.2476   21.4088 C   0  0  0  0  0  0  0  0  0  0  0  0
   12.4464   16.4780   20.7146 N   0  0  0  0  0  0  0  0  0  0  0  0
   13.7371   16.9536   21.2039 C   0  0  0  0  0  0  0  0  0  0  0  0
   14.0919   18.3237   20.6177 C   0  0  0  0  0  0  0  0  0  0  0  0
   13.9259   18.3623   19.1056 C   0  0  0  0  0  0  0  0  0  0  0  0
   13.6716   16.9691   18.5587 C   0  0  0  0  0  0  0  0  0  0  0  0
   12.4640   16.3074   19.2440 C   0  0  0  0  0  0  0  0  0  0  0  0
    9.0305   12.1174   23.5758 C   0  0  0  0  0  0  0  0  0  0  0  0
    9.7061   11.0620   22.9808 C   0  0  0  0  0  0  0  0  0  0  0  0
    9.2923    9.7693   23.2353 C   0  0  0  0  0  0  0  0  0  0  0  0
    8.2524    9.4857   24.0323 N   0  0  0  0  0  0  0  0  0  0  0  0
    7.5974   10.5006   24.6229 C   0  0  0  0  0  0  0  0  0  0  0  0
    6.5444   10.0353   25.3324 O   0  0  0  0  0  0  0  0  0  0  0  0
    6.0576   10.8717   26.3464 C   0  0  0  0  0  0  0  0  0  0  0  0
    5.4940   11.9887   25.8550 F   0  0  0  0  0  0  0  0  0  0  0  0
    5.1071   10.2012   27.0376 F   0  0  0  0  0  0  0  0  0  0  0  0
    7.0313   11.2259   27.2066 F   0  0  0  0  0  0  0  0  0  0  0  0
    7.9572   11.8267   24.4286 C   0  0  0  0  0  0  0  0  0  0  0  0
  1  2  2  0
  2  3  1  0
  3  4  1  0
  4  5  1  0
  5  6  1  0
  6  7  1  0
  7  8  1  0
  8  9  1  0
  9 10  1  0
 10 11  1  0
  2 12  1  0
 12 13  2  0
 13 14  1  0
 14 15  2  0
 15 16  1  0
 16 17  1  0
 17 18  1  0
 18 19  1  0
 18 20  1  0
 18 21  1  0
 16 22  2  0
 11  6  1  0
 22 12  1  0
M  END
>  <tags>  (265) 
{'openbind_a71ev2a_c1_knitwork_pure', 'fragmenstein_placed'}

>  <distance_score>  (265) 
0.734346

>  <ref_mols>  (265) 
A4291a,A3371a

>  <smiles>  (265) 
O=C(NCCN1CCCCC1)c1ccnc(OC(F)(F)F)c1

>  <HIPPO Pose ID>  (265) 
242264

>  <inchikey>  (265) 
ABUSFKREGHFGSP-UHFFFAOYSA-N

>  <ref_pdb>  (265) 
A3897a

>  <alias>  (265) 
C51749-P174

>  <energy_score>  (265) 
-11.743697

>  <HIPPO Compound ID>  (265) 
16370

$$$$
C45982-P401
     RDKit          3D

 23 26  0  0  0  0  0  0  0  0999 V2000
    7.6059   13.4436   22.3432 O   0  0  0  0  0  0  0  0  0  0  0  0
    7.8659   14.0924   23.6138 S   0  0  0  0  0  0  0  0  0  0  0  0
    6.7558   14.6190   24.3876 O   0  0  0  0  0  0  0  0  0  0  0  0
    8.9914   15.4858   23.4640 C   0  0  1  0  0  0  0  0  0  0  0  0
   10.2378   15.4721   24.3586 C   0  0  0  0  0  0  0  0  0  0  0  0
   11.4842   14.8876   23.7030 C   0  0  0  0  0  0  0  0  0  0  0  0
   11.6707   15.4167   22.2966 C   0  0  0  0  0  0  0  0  0  0  0  0
   10.4592   15.1440   21.5225 N   0  0  0  0  0  0  0  0  0  0  0  0
   10.6912   15.4411   20.2289 C   0  0  0  0  0  0  0  0  0  0  0  0
   10.5959   16.6119   19.6555 N   0  0  0  0  0  0  0  0  0  0  0  0
   11.1315   16.3770   18.4340 C   0  0  0  0  0  0  0  0  0  0  0  0
   11.4461   15.0625   18.2792 C   0  0  0  0  0  0  0  0  0  0  0  0
   11.2313   14.4641   19.4651 O   0  0  0  0  0  0  0  0  0  0  0  0
    9.2710   15.8462   22.0210 C   0  0  0  0  0  0  0  0  0  0  0  0
    8.7211   12.9740   24.6025 N   0  0  0  0  0  0  0  0  0  0  0  0
    9.6139   12.0193   23.8404 C   0  0  0  0  0  0  0  0  0  0  0  0
    8.9816   10.6261   23.9387 C   0  0  0  0  0  0  0  0  0  0  0  0
    7.9684   10.8142   25.0141 C   0  0  0  0  0  0  0  0  0  0  0  0
    7.1292    9.8730   25.5694 C   0  0  0  0  0  0  0  0  0  0  0  0
    6.2520   10.2527   26.5869 C   0  0  0  0  0  0  0  0  0  0  0  0
    6.2188   11.5751   27.0301 C   0  0  0  0  0  0  0  0  0  0  0  0
    7.0247   12.5365   26.4216 C   0  0  0  0  0  0  0  0  0  0  0  0
    7.8700   12.1403   25.3991 C   0  0  0  0  0  0  0  0  0  0  0  0
  1  2  2  0
  2  3  2  0
  4  2  1  6
  4  5  1  0
  5  6  1  0
  6  7  1  0
  7  8  1  0
  8  9  1  0
  9 10  2  0
 10 11  1  0
 11 12  2  0
 12 13  1  0
  8 14  1  0
  2 15  1  0
 15 16  1  0
 16 17  1  0
 17 18  1  0
 18 19  2  0
 19 20  1  0
 20 21  2  0
 21 22  1  0
 22 23  2  0
 14  4  1  0
 23 15  1  0
 13  9  1  0
 23 18  1  0
M  END
>  <tags>  (266) 
{'openbind_a71ev2a_c1_knitwork_pure', 'fragmenstein_placed'}

>  <distance_score>  (266) 
0.912632

>  <ref_mols>  (266) 
A3623a,A4554a

>  <smiles>  (266) 
O=S(=O)([C@H]1CCCN(c2ncco2)C1)N1CCc2ccccc21

>  <HIPPO Pose ID>  (266) 
245992

>  <inchikey>  (266) 
NZLDTOKBIBVWEI-UHFFFAOYSA-N

>  <ref_pdb>  (266) 
A3897a

>  <alias>  (266) 
C45982-P401

>  <energy_score>  (266) 
-39.436925

>  <HIPPO Compound ID>  (266) 
46399

$$$$
C78052-P22
     RDKit          3D

 22 23  0  0  0  0  0  0  0  0999 V2000
   10.2519    8.8488   23.1356 C   0  0  0  0  0  0  0  0  0  0  0  0
   10.1224   10.3307   23.0462 C   0  0  0  0  0  0  0  0  0  0  0  0
    8.8197   10.7908   23.3638 O   0  0  0  0  0  0  0  0  0  0  0  0
    8.4773   10.8051   24.7364 C   0  0  0  0  0  0  0  0  0  0  0  0
    7.6734   12.0647   25.0458 C   0  0  0  0  0  0  0  0  0  0  0  0
    8.1194   13.2840   24.2323 C   0  0  0  0  0  0  0  0  0  0  0  0
    9.7320   13.8246   24.7570 S   0  0  0  0  0  0  0  0  0  0  0  0
   10.6389   12.7049   24.7246 O   0  0  0  0  0  0  0  0  0  0  0  0
    9.5224   14.5680   25.9781 O   0  0  0  0  0  0  0  0  0  0  0  0
   10.2310   14.9050   23.5939 N   0  0  0  0  0  0  0  0  0  0  0  0
   11.0454   14.3948   22.4675 C   0  0  2  0  0  0  0  0  0  0  0  0
   12.4646   13.9960   22.8855 C   0  0  0  0  0  0  0  0  0  0  0  0
   13.3001   15.2072   22.5623 C   0  0  0  0  0  0  0  0  0  0  0  0
   12.6904   15.7285   21.3766 N   0  0  0  0  0  0  0  0  0  0  0  0
   13.4955   16.4625   20.3756 C   0  0  0  0  0  0  0  0  0  0  0  0
   12.8082   17.6894   19.8494 C   0  0  0  0  0  0  0  0  0  0  0  0
   13.5973   18.4810   18.8157 C   0  0  0  0  0  0  0  0  0  0  0  0
   13.9870   17.6761   17.6799 N   0  0  0  0  0  0  0  0  0  0  0  0
   14.6635   16.4840   18.1591 C   0  0  0  0  0  0  0  0  0  0  0  0
   13.7971   15.6437   19.1143 C   0  0  0  0  0  0  0  0  0  0  0  0
   11.3181   15.4579   21.3933 C   0  0  0  0  0  0  0  0  0  0  0  0
   10.4616   16.0018   20.7125 O   0  0  0  0  0  0  0  0  0  0  0  0
  1  2  1  0
  2  3  1  0
  3  4  1  0
  4  5  1  0
  5  6  1  0
  6  7  1  0
  7  8  2  0
  7  9  2  0
  7 10  1  0
 11 10  1  1
 11 12  1  0
 12 13  1  0
 13 14  1  0
 14 15  1  0
 15 16  1  0
 16 17  1  0
 17 18  1  0
 18 19  1  0
 19 20  1  0
 14 21  1  0
 21 22  2  0
 21 11  1  0
 20 15  1  0
M  END
>  <tags>  (267) 
{'openbind_a71ev2a_c1_knitwork_pure', 'fragmenstein_placed'}

>  <distance_score>  (267) 
0.998352

>  <ref_mols>  (267) 
A0528a,A0875a

>  <smiles>  (267) 
CCOCCCS(=O)(=O)N[C@@H]1CCN(C2CCNCC2)C1=O

>  <HIPPO Pose ID>  (267) 
247402

>  <inchikey>  (267) 
TWONAIHJDMPRBM-UHFFFAOYSA-N

>  <ref_pdb>  (267) 
A0541a

>  <alias>  (267) 
C78052-P22

>  <energy_score>  (267) 
-56.748313

>  <HIPPO Compound ID>  (267) 
53771

$$$$
C12359-P239
     RDKit          3D

 13 13  0  0  0  0  0  0  0  0999 V2000
    7.2092   16.0036   26.4030 C   0  0  0  0  0  0  0  0  0  0  0  0
    7.9933   15.5358   25.1901 C   0  0  0  0  0  0  0  0  0  0  0  0
    7.0713   15.0988   24.0556 C   0  0  0  0  0  0  0  0  0  0  0  0
    7.8854   13.9909   22.9090 S   0  0  0  0  0  0  0  0  0  0  0  0
    8.9015   14.7539   22.2187 O   0  0  0  0  0  0  0  0  0  0  0  0
    6.9115   13.2321   22.1569 O   0  0  0  0  0  0  0  0  0  0  0  0
    8.7293   12.9014   23.9020 N   0  0  0  0  0  0  0  0  0  0  0  0
    8.0277   11.8876   24.6434 C   0  0  0  0  0  0  0  0  0  0  0  0
    7.0899   12.2022   25.6262 C   0  0  0  0  0  0  0  0  0  0  0  0
    6.4255   11.2051   26.3341 C   0  0  0  0  0  0  0  0  0  0  0  0
    6.7509    9.8979   26.0600 C   0  0  0  0  0  0  0  0  0  0  0  0
    7.7008    9.5409   25.1730 N   0  0  0  0  0  0  0  0  0  0  0  0
    8.3123   10.5383   24.4771 C   0  0  0  0  0  0  0  0  0  0  0  0
  1  2  1  0
  2  3  1  0
  3  4  1  0
  4  5  2  0
  4  6  2  0
  4  7  1  0
  7  8  1  0
  8  9  2  0
  9 10  1  0
 10 11  2  0
 11 12  1  0
 12 13  2  0
 13  8  1  0
M  END
>  <tags>  (268) 
{'openbind_a71ev2a_c1_knitwork_pure', 'fragmenstein_placed'}

>  <distance_score>  (268) 
0.908629

>  <ref_mols>  (268) 
A0719a,A3920a

>  <smiles>  (268) 
CCCS(=O)(=O)Nc1cccnc1

>  <HIPPO Pose ID>  (268) 
247729

>  <inchikey>  (268) 
AVYIYQMLMSVDAX-UHFFFAOYSA-N

>  <ref_pdb>  (268) 
A0541a

>  <alias>  (268) 
C12359-P239

>  <energy_score>  (268) 
-23.020866

>  <HIPPO Compound ID>  (268) 
47934

$$$$
C69744-P182
     RDKit          3D

 16 18  0  0  0  0  0  0  0  0999 V2000
    7.2220   10.5141   25.3720 C   0  0  0  0  0  0  0  0  0  0  0  0
    7.1480   11.8858   25.5974 C   0  0  0  0  0  0  0  0  0  0  0  0
    8.1009   12.7338   25.0365 C   0  0  0  0  0  0  0  0  0  0  0  0
    9.1420   12.2099   24.2605 C   0  0  0  0  0  0  0  0  0  0  0  0
   10.1400   13.0763   23.6741 C   0  0  0  0  0  0  0  0  0  0  0  0
   11.4513   12.9762   23.6066 N   0  0  0  0  0  0  0  0  0  0  0  0
   11.7773   13.8772   22.6157 C   0  0  0  0  0  0  0  0  0  0  0  0
   10.6532   14.5212   22.1652 C   0  0  0  0  0  0  0  0  0  0  0  0
   10.4176   15.3830   21.0703 C   0  0  0  0  0  0  0  0  0  0  0  0
   10.4349   14.9714   19.8189 N   0  0  0  0  0  0  0  0  0  0  0  0
    9.6485   15.8847   19.1895 C   0  0  0  0  0  0  0  0  0  0  0  0
    9.3226   16.9172   20.0201 C   0  0  0  0  0  0  0  0  0  0  0  0
    9.8086   16.5937   21.2330 O   0  0  0  0  0  0  0  0  0  0  0  0
    9.6138   14.0907   22.9491 O   0  0  0  0  0  0  0  0  0  0  0  0
    9.1800   10.8375   23.9983 C   0  0  0  0  0  0  0  0  0  0  0  0
    8.2271    9.9937   24.5593 C   0  0  0  0  0  0  0  0  0  0  0  0
  1  2  2  0
  2  3  1  0
  3  4  2  0
  4  5  1  0
  5  6  2  0
  6  7  1  0
  7  8  2  0
  8  9  1  0
  9 10  2  0
 10 11  1  0
 11 12  2  0
 12 13  1  0
  8 14  1  0
  4 15  1  0
 15 16  2  0
 16  1  1  0
 14  5  1  0
 13  9  1  0
M  END
>  <tags>  (269) 
{'openbind_a71ev2a_c1_knitwork_pure', 'fragmenstein_placed'}

>  <distance_score>  (269) 
0.927401

>  <ref_mols>  (269) 
A3623a,A3435a

>  <smiles>  (269) 
c1ccc(-c2ncc(-c3ncco3)o2)cc1

>  <HIPPO Pose ID>  (269) 
248625

>  <inchikey>  (269) 
NHFWFEZEXIIBII-UHFFFAOYSA-N

>  <ref_pdb>  (269) 
A0541a

>  <alias>  (269) 
C69744-P182

>  <energy_score>  (269) 
-4.835363

>  <HIPPO Compound ID>  (269) 
81434

$$$$
C35464-P248
     RDKit          3D

 19 20  0  0  0  0  0  0  0  0999 V2000
    9.5882   11.8779   22.7249 O   0  0  0  0  0  0  0  0  0  0  0  0
    9.0719   12.6516   23.4202 C   0  0  0  0  0  0  0  0  0  0  0  0
    8.9841   14.1768   23.3157 N   0  0  0  0  0  0  0  0  0  0  0  0
    9.5926   15.0838   22.3852 C   0  0  0  0  0  0  0  0  0  0  0  0
   11.0545   15.3955   22.7626 C   0  0  1  0  0  0  0  0  0  0  0  0
   11.6981   14.2898   23.4091 O   0  0  0  0  0  0  0  0  0  0  0  0
   11.8359   15.7658   21.5135 C   0  0  0  0  0  0  0  0  0  0  0  0
   11.8466   14.6637   20.6208 O   0  0  0  0  0  0  0  0  0  0  0  0
    8.4241   12.1874   24.6972 C   0  0  2  0  0  0  0  0  0  0  0  0
    8.1102   10.7034   24.5288 C   0  0  0  0  0  0  0  0  0  0  0  0
    6.9685   10.4770   25.4502 C   0  0  0  0  0  0  0  0  0  0  0  0
    6.5571    9.3598   25.7002 O   0  0  0  0  0  0  0  0  0  0  0  0
    6.4942   11.7117   25.8834 N   0  0  0  0  0  0  0  0  0  0  0  0
    5.5214   11.8650   26.8575 C   0  0  0  0  0  0  0  0  0  0  0  0
    4.8254   13.0338   27.2429 C   0  0  0  0  0  0  0  0  0  0  0  0
    3.9799   12.8209   28.2567 N   0  0  0  0  0  0  0  0  0  0  0  0
    4.1429   11.5174   28.5316 N   0  0  0  0  0  0  0  0  0  0  0  0
    5.0384   10.9000   27.7114 C   0  0  0  0  0  0  0  0  0  0  0  0
    7.0983   12.7750   25.1185 C   0  0  0  0  0  0  0  0  0  0  0  0
  1  2  2  0
  2  3  1  0
  3  4  1  0
  4  5  1  0
  5  6  1  6
  5  7  1  0
  7  8  1  0
  9  2  1  6
  9 10  1  0
 10 11  1  0
 11 12  2  0
 11 13  1  0
 13 14  1  0
 14 15  1  0
 15 16  2  0
 16 17  1  0
 17 18  1  0
 13 19  1  0
 19  9  1  0
 18 14  2  0
M  END
>  <tags>  (270) 
{'openbind_a71ev2a_c1_knitwork_pure', 'fragmenstein_placed'}

>  <distance_score>  (270) 
0.896522

>  <ref_mols>  (270) 
A3956a,A0556a

>  <smiles>  (270) 
O=C(NC[C@@H](O)CO)[C@@H]1CC(=O)N(c2cn[nH]c2)C1

>  <HIPPO Pose ID>  (270) 
248984

>  <inchikey>  (270) 
AWLHCXVUPILPTN-UHFFFAOYSA-N

>  <ref_pdb>  (270) 
A0541a

>  <alias>  (270) 
C35464-P248

>  <energy_score>  (270) 
-12.377643

>  <HIPPO Compound ID>  (270) 
45810

$$$$
C35473-P248
     RDKit          3D

 20 22  0  0  0  0  0  0  0  0999 V2000
    9.2472   12.5687   22.6166 O   0  0  0  0  0  0  0  0  0  0  0  0
    8.6285   13.1468   23.4957 C   0  0  0  0  0  0  0  0  0  0  0  0
    8.2471   14.4440   23.4598 O   0  0  0  0  0  0  0  0  0  0  0  0
    8.5552   15.0839   22.2039 C   0  0  0  0  0  0  0  0  0  0  0  0
   10.0110   15.2800   21.9828 C   0  0  0  0  0  0  0  0  0  0  0  0
   10.6554   15.3518   20.7294 C   0  0  0  0  0  0  0  0  0  0  0  0
   11.9668   15.5235   20.8513 N   0  0  0  0  0  0  0  0  0  0  0  0
   12.1834   15.5046   22.1641 N   0  0  0  0  0  0  0  0  0  0  0  0
   11.0448   15.3784   22.9006 C   0  0  0  0  0  0  0  0  0  0  0  0
    8.2838   12.4586   24.7693 C   0  0  2  0  0  0  0  0  0  0  0  0
    8.0889   10.9768   24.4790 C   0  0  0  0  0  0  0  0  0  0  0  0
    7.0355   10.5500   25.4423 C   0  0  0  0  0  0  0  0  0  0  0  0
    6.7427    9.3778   25.5970 O   0  0  0  0  0  0  0  0  0  0  0  0
    6.4912   11.6875   26.0372 N   0  0  0  0  0  0  0  0  0  0  0  0
    5.5278   11.6580   27.0333 C   0  0  0  0  0  0  0  0  0  0  0  0
    4.7800   12.7302   27.5749 C   0  0  0  0  0  0  0  0  0  0  0  0
    3.9528   12.3436   28.5517 N   0  0  0  0  0  0  0  0  0  0  0  0
    4.1825   11.0250   28.6520 N   0  0  0  0  0  0  0  0  0  0  0  0
    5.0977   10.5676   27.7523 C   0  0  0  0  0  0  0  0  0  0  0  0
    6.9713   12.8826   25.3862 C   0  0  0  0  0  0  0  0  0  0  0  0
  1  2  2  0
  2  3  1  0
  3  4  1  0
  4  5  1  0
  5  6  1  0
  6  7  2  0
  7  8  1  0
  8  9  1  0
 10  2  1  6
 10 11  1  0
 11 12  1  0
 12 13  2  0
 12 14  1  0
 14 15  1  0
 15 16  1  0
 16 17  2  0
 17 18  1  0
 18 19  1  0
 14 20  1  0
  9  5  2  0
 20 10  1  0
 19 15  2  0
M  END
>  <tags>  (271) 
{'openbind_a71ev2a_c1_knitwork_pure', 'fragmenstein_placed'}

>  <distance_score>  (271) 
0.958347

>  <ref_mols>  (271) 
A3956a,A0556a

>  <smiles>  (271) 
O=C(OCc1cn[nH]c1)[C@@H]1CC(=O)N(c2cn[nH]c2)C1

>  <HIPPO Pose ID>  (271) 
248992

>  <inchikey>  (271) 
PLOYGMMNBYFGSF-UHFFFAOYSA-N

>  <ref_pdb>  (271) 
A0541a

>  <alias>  (271) 
C35473-P248

>  <energy_score>  (271) 
-35.385411

>  <HIPPO Compound ID>  (271) 
35473

$$$$
C54505-P214
     RDKit          3D

 18 19  0  0  0  0  0  0  0  0999 V2000
    6.8478   13.3083   22.4788 O   0  0  0  0  0  0  0  0  0  0  0  0
    7.6124   13.9087   23.1232 C   0  0  0  0  0  0  0  0  0  0  0  0
    7.7776   13.8033   24.6676 C   0  0  0  0  0  0  0  0  0  0  0  0
    7.1665   12.6356   25.3287 N   0  0  0  0  0  0  0  0  0  0  0  0
    5.7328   12.8247   25.5511 C   0  0  0  0  0  0  0  0  0  0  0  0
    5.2079   11.7217   26.4660 C   0  0  0  0  0  0  0  0  0  0  0  0
    5.4633   10.3367   25.8933 C   0  0  0  0  0  0  0  0  0  0  0  0
    6.8803   10.1726   25.3718 C   0  0  0  0  0  0  0  0  0  0  0  0
    7.4314   11.3759   24.6287 C   0  0  0  0  0  0  0  0  0  0  0  0
    8.7399   14.8831   22.6950 N   0  0  0  0  0  0  0  0  0  0  0  0
    9.2152   15.2419   21.3892 C   0  0  0  0  0  0  0  0  0  0  0  0
   10.7425   15.3316   21.4175 C   0  0  0  0  0  0  0  0  0  0  0  0
   11.3693   15.3466   20.0138 C   0  0  0  0  0  0  0  0  0  0  0  0
   10.6280   16.2404   19.0517 C   0  0  0  0  0  0  0  0  0  0  0  0
   11.3498   16.2673   17.8403 O   0  0  0  0  0  0  0  0  0  0  0  0
   11.2851   16.4646   22.3347 C   0  0  0  0  0  0  0  0  0  0  0  0
   12.3029   15.4767   22.9127 C   0  0  0  0  0  0  0  0  0  0  0  0
   11.5085   14.3114   22.3194 C   0  0  0  0  0  0  0  0  0  0  0  0
  1  2  2  0
  2  3  1  0
  3  4  1  0
  4  5  1  0
  5  6  1  0
  6  7  1  0
  7  8  1  0
  8  9  1  0
  2 10  1  0
 10 11  1  0
 11 12  1  0
 12 13  1  0
 13 14  1  0
 14 15  1  0
 12 16  1  0
 16 17  1  0
 17 18  1  0
  9  4  1  0
 18 12  1  0
M  END
>  <tags>  (272) 
{'openbind_a71ev2a_c1_knitwork_pure', 'fragmenstein_placed'}

>  <distance_score>  (272) 
0.924371

>  <ref_mols>  (272) 
A3550a,A0608a

>  <smiles>  (272) 
O=C(CN1CCCCC1)NCC1(CCO)CCC1

>  <HIPPO Pose ID>  (272) 
249027

>  <inchikey>  (272) 
ASBBGKVVIBZBJN-UHFFFAOYSA-N

>  <ref_pdb>  (272) 
A0541a

>  <alias>  (272) 
C54505-P214

>  <energy_score>  (272) 
-13.751277

>  <HIPPO Compound ID>  (272) 
101781

$$$$
C101512-P38
     RDKit          3D

 14 15  0  0  0  0  0  0  0  0999 V2000
   12.3644   13.0259   -2.8042 O   0  0  0  0  0  0  0  0  0  0  0  0
   12.0169   12.2898   -1.6419 C   0  0  1  0  0  0  0  0  0  0  0  0
   10.7593   11.4557   -1.8335 C   0  0  0  0  0  0  0  0  0  0  0  0
   10.8097   10.4049   -0.8601 O   0  0  0  0  0  0  0  0  0  0  0  0
   12.1787   10.2565   -0.4389 C   0  0  0  0  0  0  0  0  0  0  0  0
   13.0320   11.1977   -1.2944 C   0  0  2  0  0  0  0  0  0  0  0  0
   14.3146   11.6014   -0.7204 N   0  0  0  0  0  0  0  0  0  0  0  0
   14.2777   12.5716    0.3702 C   0  0  0  0  0  0  0  0  0  0  0  0
   15.5777   12.5463    1.2361 C   0  0  2  0  0  0  0  0  0  0  0  0
   15.7767   13.9124    1.9116 C   0  0  0  0  0  0  0  0  0  0  0  0
   17.0730   13.9693    2.7107 C   0  0  0  0  0  0  0  0  0  0  0  0
   18.2488   13.5367    1.8452 C   0  0  0  0  0  0  0  0  0  0  0  0
   17.9921   12.1727    1.2134 C   0  0  0  0  0  0  0  0  0  0  0  0
   16.7514   12.1325    0.4531 N   0  0  0  0  0  0  0  0  0  0  0  0
  2  1  1  6
  2  3  1  0
  3  4  1  0
  4  5  1  0
  5  6  1  0
  6  7  1  1
  7  8  1  0
  9  8  1  6
  9 10  1  0
 10 11  1  0
 11 12  1  0
 12 13  1  0
 13 14  1  0
  6  2  1  0
 14  9  1  0
M  END
>  <tags>  (273) 
{'openbind_a71ev2a_c1_knitwork_pure', 'fragmenstein_placed'}

>  <distance_score>  (273) 
0.397896

>  <ref_mols>  (273) 
A3550a,A0608a

>  <smiles>  (273) 
O[C@H]1COC[C@@H]1NC[C@@H]1CCCCN1

>  <HIPPO Pose ID>  (273) 
249039

>  <inchikey>  (273) 
NEWYPLQNQDROOI-UHFFFAOYSA-N

>  <ref_pdb>  (273) 
A0541a

>  <alias>  (273) 
C101512-P38

>  <energy_score>  (273) 
-42.971856

>  <HIPPO Compound ID>  (273) 
46470

$$$$
C48908-P374
     RDKit          3D

 24 27  0  0  0  0  0  0  0  0999 V2000
   19.2959   13.3781    3.1930 O   0  0  0  0  0  0  0  0  0  0  0  0
   19.6292   14.3898    2.7176 C   0  0  0  0  0  0  0  0  0  0  0  0
   21.0387   14.9776    2.5050 N   0  0  0  0  0  0  0  0  0  0  0  0
   22.3324   14.4065    2.7447 C   0  0  0  0  0  0  0  0  0  0  0  0
   22.8349   13.8195    1.4790 C   0  0  0  0  0  0  0  0  0  0  0  0
   22.2509   13.8521    0.2937 N   0  0  0  0  0  0  0  0  0  0  0  0
   23.0594   13.2016   -0.6073 N   0  0  0  0  0  0  0  0  0  0  0  0
   24.1295   12.7963    0.0372 C   0  0  0  0  0  0  0  0  0  0  0  0
   24.0326   13.1726    1.3495 N   0  0  0  0  0  0  0  0  0  0  0  0
   25.0944   13.0317    2.3213 C   0  0  0  0  0  0  0  0  0  0  0  0
   26.1900   12.0644    1.8646 C   0  0  0  0  0  0  0  0  0  0  0  0
   26.5318   12.2655    0.3864 C   0  0  0  0  0  0  0  0  0  0  0  0
   25.2989   12.0563   -0.4953 C   0  0  0  0  0  0  0  0  0  0  0  0
   18.5969   15.3687    2.2687 C   0  0  0  0  0  0  0  0  0  0  0  0
   18.7586   16.7438    2.2227 C   0  0  0  0  0  0  0  0  0  0  0  0
   17.3751   17.5032    1.5697 S   0  0  0  0  0  0  0  0  0  0  0  0
   16.5931   15.9730    1.4626 C   0  0  0  0  0  0  0  0  0  0  0  0
   15.2114   15.8706    0.8471 C   0  0  0  0  0  0  0  0  0  0  0  0
   14.7403   14.4124    0.7130 C   0  0  0  0  0  0  0  0  0  0  0  0
   14.2537   13.8320    2.0419 C   0  0  0  0  0  0  0  0  0  0  0  0
   13.2005   14.6659    2.6420 N   0  0  0  0  0  0  0  0  0  0  0  0
   13.7169   16.0125    2.9007 C   0  0  0  0  0  0  0  0  0  0  0  0
   14.1527   16.6898    1.6045 C   0  0  0  0  0  0  0  0  0  0  0  0
   17.3147   14.9557    1.8864 N   0  0  0  0  0  0  0  0  0  0  0  0
  1  2  2  0
  2  3  1  0
  3  4  1  0
  4  5  1  0
  5  6  2  0
  6  7  1  0
  7  8  2  0
  8  9  1  0
  9 10  1  0
 10 11  1  0
 11 12  1  0
 12 13  1  0
  2 14  1  0
 14 15  2  0
 15 16  1  0
 16 17  1  0
 17 18  1  0
 18 19  1  0
 19 20  1  0
 20 21  1  0
 21 22  1  0
 22 23  1  0
 17 24  2  0
  9  5  1  0
 24 14  1  0
 13  8  1  0
 23 18  1  0
M  END
>  <tags>  (274) 
{'openbind_a71ev2a_c1_knitwork_pure', 'fragmenstein_placed'}

>  <distance_score>  (274) 
0.524453

>  <ref_mols>  (274) 
A0239a,A4463a

>  <smiles>  (274) 
O=C(NCc1nnc2n1CCCC2)c1csc(C2CCNCC2)n1

>  <HIPPO Pose ID>  (274) 
252033

>  <inchikey>  (274) 
FRZNABRJHVHFJE-UHFFFAOYSA-N

>  <ref_pdb>  (274) 
A0541a

>  <alias>  (274) 
C48908-P374

>  <energy_score>  (274) 
-40.310042

>  <HIPPO Compound ID>  (274) 
47013

$$$$
C59012-P256
     RDKit          3D

 19 20  0  0  0  0  0  0  0  0999 V2000
    7.5567   10.4152   25.2344 C   0  0  0  0  0  0  0  0  0  0  0  0
    8.8136   10.3790   24.4202 C   0  0  0  0  0  0  0  0  0  0  0  0
    9.5278    9.3793   24.4154 O   0  0  0  0  0  0  0  0  0  0  0  0
    9.1420   11.6039   23.6128 C   0  0  0  0  0  0  0  0  0  0  0  0
    9.9071   12.9502   24.5417 S   0  0  0  0  0  0  0  0  0  0  0  0
    8.5287   13.6495   25.5013 C   0  0  0  0  0  0  0  0  0  0  0  0
    7.8226   14.8559   24.9042 C   0  0  0  0  0  0  0  0  0  0  0  0
    8.0160   15.9970   25.3150 O   0  0  0  0  0  0  0  0  0  0  0  0
    6.8723   14.5794   23.9377 N   0  0  0  0  0  0  0  0  0  0  0  0
    7.2624   14.6187   22.5424 C   0  0  0  0  0  0  0  0  0  0  0  0
    6.1416   15.0272   21.6092 C   0  0  0  0  0  0  0  0  0  0  0  0
    4.8614   14.2693   21.9295 C   0  0  0  0  0  0  0  0  0  0  0  0
    3.8360   14.4792   20.8718 C   0  0  0  0  0  0  0  0  0  0  0  0
    3.1120   15.5414   20.5756 N   0  0  0  0  0  0  0  0  0  0  0  0
    2.4122   15.1481   19.4558 C   0  0  0  0  0  0  0  0  0  0  0  0
    2.7646   13.8711   19.1023 C   0  0  0  0  0  0  0  0  0  0  0  0
    3.6778   13.4268   20.0052 O   0  0  0  0  0  0  0  0  0  0  0  0
    4.4222   14.6533   23.3348 C   0  0  0  0  0  0  0  0  0  0  0  0
    5.5050   14.2557   24.3390 C   0  0  0  0  0  0  0  0  0  0  0  0
  1  2  1  0
  2  3  2  0
  2  4  1  0
  4  5  1  0
  5  6  1  0
  6  7  1  0
  7  8  2  0
  7  9  1  0
  9 10  1  0
 10 11  1  0
 11 12  1  0
 12 13  1  0
 13 14  2  0
 14 15  1  0
 15 16  2  0
 16 17  1  0
 12 18  1  0
 18 19  1  0
 19  9  1  0
 17 13  1  0
M  END
>  <tags>  (275) 
{'openbind_a71ev2a_c1_knitwork_pure', 'fragmenstein_placed'}

>  <distance_score>  (275) 
0.953177

>  <ref_mols>  (275) 
A3986a,A3623a

>  <smiles>  (275) 
CC(=O)CSCC(=O)N1CCC(c2ncco2)CC1

>  <HIPPO Pose ID>  (275) 
252609

>  <inchikey>  (275) 
OTMGIRLBTFICTQ-UHFFFAOYSA-N

>  <ref_pdb>  (275) 
A0541a

>  <alias>  (275) 
C59012-P256

>  <energy_score>  (275) 
-20.931921

>  <HIPPO Compound ID>  (275) 
56915

$$$$
C46501-P322
     RDKit          3D

 16 17  0  0  0  0  0  0  0  0999 V2000
    6.0379   13.7062    4.9484 N   0  0  0  0  0  0  0  0  0  0  0  0
    6.9330   13.6562    4.2109 C   0  0  0  0  0  0  0  0  0  0  0  0
    7.9856   13.7109    3.2469 C   0  0  0  0  0  0  0  0  0  0  0  0
    8.8198   14.8254    3.2630 C   0  0  0  0  0  0  0  0  0  0  0  0
    9.7873   15.0671    2.3499 N   0  0  0  0  0  0  0  0  0  0  0  0
    9.8835   14.1707    1.3488 C   0  0  0  0  0  0  0  0  0  0  0  0
    9.0985   13.0283    1.2518 C   0  0  0  0  0  0  0  0  0  0  0  0
    8.1508   12.7418    2.2408 C   0  0  0  0  0  0  0  0  0  0  0  0
    7.3106   11.6337    2.1678 N   0  0  0  0  0  0  0  0  0  0  0  0
    7.4504   10.5401    1.2105 C   0  0  0  0  0  0  0  0  0  0  0  0
    8.7063    9.6690    1.3996 C   0  0  2  0  0  0  0  0  0  0  0  0
    8.6236    8.4512    0.4584 C   0  0  0  0  0  0  0  0  0  0  0  0
    9.7716    7.4742    0.6999 C   0  0  0  0  0  0  0  0  0  0  0  0
    9.8828    7.1074    2.1767 C   0  0  0  0  0  0  0  0  0  0  0  0
   10.0526    8.3128    2.9771 N   0  0  0  0  0  0  0  0  0  0  0  0
    8.8969    9.2081    2.8492 C   0  0  0  0  0  0  0  0  0  0  0  0
  1  2  3  0
  2  3  1  0
  3  4  2  0
  4  5  1  0
  5  6  2  0
  6  7  1  0
  7  8  2  0
  8  9  1  0
  9 10  1  0
 11 10  1  1
 11 12  1  0
 12 13  1  0
 13 14  1  0
 14 15  1  0
 15 16  1  0
  8  3  1  0
 16 11  1  0
M  END
>  <tags>  (276) 
{'openbind_a71ev2a_c1_knitwork_pure', 'fragmenstein_placed'}

>  <distance_score>  (276) 
0.92123

>  <ref_mols>  (276) 
A4351a,A0428a

>  <smiles>  (276) 
N#Cc1cnccc1NC[C@@H]1CCCNC1

>  <HIPPO Pose ID>  (276) 
254641

>  <inchikey>  (276) 
NYRUPEKHZSORRF-UHFFFAOYSA-N

>  <ref_pdb>  (276) 
A0541a

>  <alias>  (276) 
C46501-P322

>  <energy_score>  (276) 
-25.753294

>  <HIPPO Compound ID>  (276) 
40498

$$$$
C46024-P325
     RDKit          3D

 19 21  0  0  0  0  0  0  0  0999 V2000
   10.4200   15.7828   19.5544 C   0  0  0  0  0  0  0  0  0  0  0  0
   10.4838   15.1163   20.9255 C   0  0  1  0  0  0  0  0  0  0  0  0
   11.8434   15.3835   21.5727 C   0  0  0  0  0  0  0  0  0  0  0  0
   11.8889   14.7875   22.9726 C   0  0  0  0  0  0  0  0  0  0  0  0
   10.7212   15.3128   23.8037 C   0  0  0  0  0  0  0  0  0  0  0  0
    9.3975   15.0323   23.2253 N   0  0  0  0  0  0  0  0  0  0  0  0
    9.0207   13.6036   23.2440 C   0  0  0  0  0  0  0  0  0  0  0  0
    9.0357   13.0046   24.6471 C   0  0  0  0  0  0  0  0  0  0  0  0
   10.0631   12.7286   25.2658 O   0  0  0  0  0  0  0  0  0  0  0  0
    7.7384   12.7213   25.2861 C   0  0  0  0  0  0  0  0  0  0  0  0
    7.0007   13.8038   25.7881 C   0  0  0  0  0  0  0  0  0  0  0  0
    5.8193   13.5751   26.4901 C   0  0  0  0  0  0  0  0  0  0  0  0
    5.3767   12.2760   26.6325 C   0  0  0  0  0  0  0  0  0  0  0  0
    6.1054   11.2018   26.1224 C   0  0  0  0  0  0  0  0  0  0  0  0
    7.3103   11.3980   25.4615 C   0  0  0  0  0  0  0  0  0  0  0  0
    5.3948    9.9492   26.4897 C   0  0  0  0  0  0  0  0  0  0  0  0
    4.0537   10.4933   26.9963 C   0  0  0  0  0  0  0  0  0  0  0  0
    4.2323   11.9054   27.3902 N   0  0  0  0  0  0  0  0  0  0  0  0
    9.3355   15.5780   21.8472 C   0  0  0  0  0  0  0  0  0  0  0  0
  2  1  1  6
  2  3  1  0
  3  4  1  0
  4  5  1  0
  5  6  1  0
  6  7  1  0
  7  8  1  0
  8  9  2  0
  8 10  1  0
 10 11  2  0
 11 12  1  0
 12 13  2  0
 13 14  1  0
 14 15  2  0
 14 16  1  0
 16 17  1  0
 17 18  1  0
  6 19  1  0
 19  2  1  0
 15 10  1  0
 18 13  1  0
M  END
>  <tags>  (277) 
{'openbind_a71ev2a_c1_knitwork_pure', 'fragmenstein_placed'}

>  <distance_score>  (277) 
0.994811

>  <ref_mols>  (277) 
A1778a,A4368a

>  <smiles>  (277) 
C[C@H]1CCCN(CC(=O)c2ccc3c(c2)CCN3)C1

>  <HIPPO Pose ID>  (277) 
254885

>  <inchikey>  (277) 
BAUHVGNDLBNYPF-UHFFFAOYSA-N

>  <ref_pdb>  (277) 
A0541a

>  <alias>  (277) 
C46024-P325

>  <energy_score>  (277) 
-34.512349

>  <HIPPO Compound ID>  (277) 
35439

$$$$
C46033-P325
     RDKit          3D

 19 21  0  0  0  0  0  0  0  0999 V2000
   10.6272   15.3877   19.5481 C   0  0  0  0  0  0  0  0  0  0  0  0
   10.5393   14.9418   21.0092 C   0  0  2  0  0  0  0  0  0  0  0  0
    9.3915   15.6617   21.7242 C   0  0  0  0  0  0  0  0  0  0  0  0
    9.4454   15.5885   23.2534 C   0  0  1  0  0  0  0  0  0  0  0  0
    8.5453   14.6348   23.8718 N   0  0  0  0  0  0  0  0  0  0  0  0
    8.8397   13.3192   24.6203 C   0  0  0  0  0  0  0  0  0  0  0  0
    9.8463   12.7555   24.7908 O   0  0  0  0  0  0  0  0  0  0  0  0
    7.5989   12.8114   25.2746 C   0  0  0  0  0  0  0  0  0  0  0  0
    6.7826   13.7114   25.9976 C   0  0  0  0  0  0  0  0  0  0  0  0
    5.6703   13.2619   26.7128 C   0  0  0  0  0  0  0  0  0  0  0  0
    5.4080   11.9127   26.7236 C   0  0  0  0  0  0  0  0  0  0  0  0
    6.1967   11.0345   25.9835 C   0  0  0  0  0  0  0  0  0  0  0  0
    7.3146   11.4478   25.2730 C   0  0  0  0  0  0  0  0  0  0  0  0
    5.6141    9.6801   26.1181 C   0  0  0  0  0  0  0  0  0  0  0  0
    4.6987    9.8630   27.3345 C   0  0  0  0  0  0  0  0  0  0  0  0
    4.3186   11.2877   27.3734 N   0  0  0  0  0  0  0  0  0  0  0  0
   10.8554   15.5711   23.8367 C   0  0  0  0  0  0  0  0  0  0  0  0
   11.8226   14.7350   23.0188 C   0  0  0  0  0  0  0  0  0  0  0  0
   11.8272   15.2268   21.6479 N   0  0  0  0  0  0  0  0  0  0  0  0
  2  1  1  6
  2  3  1  0
  3  4  1  0
  4  5  1  6
  5  6  1  0
  6  7  2  0
  6  8  1  0
  8  9  2  0
  9 10  1  0
 10 11  2  0
 11 12  1  0
 12 13  2  0
 12 14  1  0
 14 15  1  0
 15 16  1  0
  4 17  1  0
 17 18  1  0
 18 19  1  0
 19  2  1  0
 13  8  1  0
 16 11  1  0
M  END
>  <tags>  (278) 
{'openbind_a71ev2a_c1_knitwork_pure', 'fragmenstein_placed'}

>  <distance_score>  (278) 
0.940282

>  <ref_mols>  (278) 
A1778a,A4368a

>  <smiles>  (278) 
C[C@@H]1C[C@@H](NC(=O)c2ccc3c(c2)CCN3)CCN1

>  <HIPPO Pose ID>  (278) 
254891

>  <inchikey>  (278) 
QEUQYOFEBBDDHZ-UHFFFAOYSA-N

>  <ref_pdb>  (278) 
A0541a

>  <alias>  (278) 
C46033-P325

>  <energy_score>  (278) 
-16.831638

>  <HIPPO Compound ID>  (278) 
26549

$$$$
C45835-P252
     RDKit          3D

 22 24  0  0  0  0  0  0  0  0999 V2000
    5.5459   16.3416   27.6027 C   0  0  0  0  0  0  0  0  0  0  0  0
    5.4961   15.2476   26.6864 O   0  0  0  0  0  0  0  0  0  0  0  0
    6.7251   14.7859   26.3068 C   0  0  0  0  0  0  0  0  0  0  0  0
    7.7871   15.1633   26.7901 O   0  0  0  0  0  0  0  0  0  0  0  0
    6.5638   13.6996   25.2600 C   0  0  2  0  0  0  0  0  0  0  0  0
    6.3363   12.3290   25.9099 C   0  0  0  0  0  0  0  0  0  0  0  0
    7.2842   11.4553   25.1517 C   0  0  0  0  0  0  0  0  0  0  0  0
    7.3853   10.0789   25.1976 C   0  0  0  0  0  0  0  0  0  0  0  0
    8.3938    9.4638   24.4545 C   0  0  0  0  0  0  0  0  0  0  0  0
    9.2836   10.2167   23.6856 C   0  0  0  0  0  0  0  0  0  0  0  0
    9.1656   11.6023   23.6336 C   0  0  0  0  0  0  0  0  0  0  0  0
    8.1379   12.1990   24.3431 C   0  0  0  0  0  0  0  0  0  0  0  0
    7.8316   13.5861   24.4400 N   0  0  0  0  0  0  0  0  0  0  0  0
    7.7151   14.4816   23.0211 S   0  0  0  0  0  0  0  0  0  0  0  0
    6.9797   13.6883   22.0584 O   0  0  0  0  0  0  0  0  0  0  0  0
    7.2666   15.8014   23.4029 O   0  0  0  0  0  0  0  0  0  0  0  0
    9.3060   14.6173   22.4838 N   0  0  0  0  0  0  0  0  0  0  0  0
   10.2901   15.0960   23.4823 C   0  0  0  0  0  0  0  0  0  0  0  0
   11.6878   14.8971   22.9048 C   0  0  0  0  0  0  0  0  0  0  0  0
   11.8539   15.7252   21.6361 C   0  0  0  0  0  0  0  0  0  0  0  0
   10.7853   15.3450   20.6209 C   0  0  0  0  0  0  0  0  0  0  0  0
    9.3897   15.4297   21.2251 C   0  0  0  0  0  0  0  0  0  0  0  0
  1  2  1  0
  2  3  1  0
  3  4  2  0
  5  3  1  1
  5  6  1  0
  6  7  1  0
  7  8  2  0
  8  9  1  0
  9 10  2  0
 10 11  1  0
 11 12  2  0
 12 13  1  0
 13 14  1  0
 14 15  2  0
 14 16  2  0
 14 17  1  0
 17 18  1  0
 18 19  1  0
 19 20  1  0
 20 21  1  0
 21 22  1  0
 13  5  1  0
 22 17  1  0
 12  7  1  0
M  END
>  <tags>  (279) 
{'openbind_a71ev2a_c1_knitwork_pure', 'fragmenstein_placed'}

>  <distance_score>  (279) 
0.916481

>  <ref_mols>  (279) 
A1778a,A3975a

>  <smiles>  (279) 
COC(=O)[C@@H]1Cc2ccccc2N1S(=O)(=O)N1CCCCC1

>  <HIPPO Pose ID>  (279) 
255037

>  <inchikey>  (279) 
MZJWMOJDYRPWCV-UHFFFAOYSA-N

>  <ref_pdb>  (279) 
A0541a

>  <alias>  (279) 
C45835-P252

>  <energy_score>  (279) 
-55.434988

>  <HIPPO Compound ID>  (279) 
102808

$$$$
C46024-P303
     RDKit          3D

 19 21  0  0  0  0  0  0  0  0999 V2000
   10.3791   15.2555   19.1124 C   0  0  0  0  0  0  0  0  0  0  0  0
   10.5183   15.2554   20.6319 C   0  0  2  0  0  0  0  0  0  0  0  0
   11.8536   14.6237   21.0143 C   0  0  0  0  0  0  0  0  0  0  0  0
   11.9483   14.1932   22.4672 C   0  0  0  0  0  0  0  0  0  0  0  0
   10.6885   14.4309   23.2588 C   0  0  0  0  0  0  0  0  0  0  0  0
    9.5526   13.8843   22.5359 N   0  0  0  0  0  0  0  0  0  0  0  0
    8.3442   13.7749   23.3541 C   0  0  0  0  0  0  0  0  0  0  0  0
    8.4997   12.7179   24.4457 C   0  0  0  0  0  0  0  0  0  0  0  0
    9.5000   12.0240   24.6164 O   0  0  0  0  0  0  0  0  0  0  0  0
    7.3624   12.5377   25.3802 C   0  0  0  0  0  0  0  0  0  0  0  0
    7.1834   11.2754   25.9789 C   0  0  0  0  0  0  0  0  0  0  0  0
    6.1543   11.0630   26.9010 C   0  0  0  0  0  0  0  0  0  0  0  0
    5.3087   12.1135   27.1926 C   0  0  0  0  0  0  0  0  0  0  0  0
    5.4936   13.3625   26.6042 C   0  0  0  0  0  0  0  0  0  0  0  0
    6.5090   13.5992   25.6979 C   0  0  0  0  0  0  0  0  0  0  0  0
    4.4776   14.3149   27.1304 C   0  0  0  0  0  0  0  0  0  0  0  0
    3.5079   13.3283   27.8037 C   0  0  0  0  0  0  0  0  0  0  0  0
    4.2713   12.1110   28.1532 N   0  0  0  0  0  0  0  0  0  0  0  0
    9.2842   14.6408   21.3104 C   0  0  0  0  0  0  0  0  0  0  0  0
  2  1  1  6
  2  3  1  0
  3  4  1  0
  4  5  1  0
  5  6  1  0
  6  7  1  0
  7  8  1  0
  8  9  2  0
  8 10  1  0
 10 11  2  0
 11 12  1  0
 12 13  2  0
 13 14  1  0
 14 15  2  0
 14 16  1  0
 16 17  1  0
 17 18  1  0
  6 19  1  0
 19  2  1  0
 15 10  1  0
 18 13  1  0
M  END
>  <tags>  (280) 
{'openbind_a71ev2a_c1_knitwork_pure', 'fragmenstein_placed'}

>  <distance_score>  (280) 
0.913447

>  <ref_mols>  (280) 
A1778a,A4320a

>  <smiles>  (280) 
C[C@@H]1CCCN(CC(=O)c2ccc3c(c2)CCN3)C1

>  <HIPPO Pose ID>  (280) 
255778

>  <inchikey>  (280) 
PQANNCWYAKKWKR-UHFFFAOYSA-N

>  <ref_pdb>  (280) 
A0528b

>  <alias>  (280) 
C46024-P303

>  <energy_score>  (280) 
-36.417112

>  <HIPPO Compound ID>  (280) 
51493

$$$$
C46025-P303
     RDKit          3D

 19 21  0  0  0  0  0  0  0  0999 V2000
   11.5895   13.3216   24.1645 C   0  0  0  0  0  0  0  0  0  0  0  0
   10.9366   14.5277   23.4964 C   0  0  1  0  0  0  0  0  0  0  0  0
   11.8647   15.1095   22.4096 C   0  0  0  0  0  0  0  0  0  0  0  0
   11.5900   14.5254   21.0490 C   0  0  0  0  0  0  0  0  0  0  0  0
   10.1331   14.7242   20.6685 C   0  0  0  0  0  0  0  0  0  0  0  0
    9.2543   15.1569   21.8395 C   0  0  0  0  0  0  0  0  0  0  0  0
    9.5028   14.4126   23.1130 N   0  0  0  0  0  0  0  0  0  0  0  0
    8.9929   13.0475   22.9062 C   0  0  0  0  0  0  0  0  0  0  0  0
    8.7917   12.1477   24.1095 C   0  0  0  0  0  0  0  0  0  0  0  0
    9.4643   11.1181   24.2282 O   0  0  0  0  0  0  0  0  0  0  0  0
    7.6794   12.3481   25.0786 C   0  0  0  0  0  0  0  0  0  0  0  0
    7.3238   11.2268   25.8677 C   0  0  0  0  0  0  0  0  0  0  0  0
    6.2587   11.2688   26.7678 C   0  0  0  0  0  0  0  0  0  0  0  0
    5.5298   12.4329   26.8442 C   0  0  0  0  0  0  0  0  0  0  0  0
    5.8885   13.5523   26.0903 C   0  0  0  0  0  0  0  0  0  0  0  0
    6.9606   13.5371   25.2029 C   0  0  0  0  0  0  0  0  0  0  0  0
    4.9696   14.6741   26.4231 C   0  0  0  0  0  0  0  0  0  0  0  0
    3.8663   13.9199   27.1858 C   0  0  0  0  0  0  0  0  0  0  0  0
    4.4212   12.6448   27.7085 N   0  0  0  0  0  0  0  0  0  0  0  0
  2  1  1  6
  2  3  1  0
  3  4  1  0
  4  5  1  0
  5  6  1  0
  6  7  1  0
  7  8  1  0
  8  9  1  0
  9 10  2  0
  9 11  1  0
 11 12  2  0
 12 13  1  0
 13 14  2  0
 14 15  1  0
 15 16  2  0
 15 17  1  0
 17 18  1  0
 18 19  1  0
  7  2  1  0
 16 11  1  0
 19 14  1  0
M  END
>  <tags>  (281) 
{'openbind_a71ev2a_c1_knitwork_pure', 'fragmenstein_placed'}

>  <distance_score>  (281) 
0.939749

>  <ref_mols>  (281) 
A1778a,A4320a

>  <smiles>  (281) 
C[C@H]1CCCCN1CC(=O)c1ccc2c(c1)CCN2

>  <HIPPO Pose ID>  (281) 
255779

>  <inchikey>  (281) 
WDXPCDIQYNQRBP-UHFFFAOYSA-N

>  <ref_pdb>  (281) 
A0528b

>  <alias>  (281) 
C46025-P303

>  <energy_score>  (281) 
-56.426291

>  <HIPPO Compound ID>  (281) 
55892

$$$$
C55226-P87
     RDKit          3D

 12 12  0  0  0  0  0  0  0  0999 V2000
   15.5104   11.4597   24.9603 C   0  0  0  0  0  0  0  0  0  0  0  0
   14.0170   10.4922   25.2677 S   0  0  0  0  0  0  0  0  0  0  0  0
   12.7205   11.6016   24.6522 C   0  0  0  0  0  0  0  0  0  0  0  0
   12.5533   12.8420   25.4708 C   0  0  0  0  0  0  0  0  0  0  0  0
   11.1035   13.2070   25.5973 C   0  0  0  0  0  0  0  0  0  0  0  0
   10.4000   13.1863   24.3207 N   0  0  0  0  0  0  0  0  0  0  0  0
    9.0559   13.7203   24.5019 C   0  0  0  0  0  0  0  0  0  0  0  0
    7.8364   12.8873   24.1751 C   0  0  0  0  0  0  0  0  0  0  0  0
    7.5946   11.7995   25.1931 C   0  0  0  0  0  0  0  0  0  0  0  0
    7.9765   10.6380   25.0940 O   0  0  0  0  0  0  0  0  0  0  0  0
   10.5332   11.9251   23.5837 C   0  0  0  0  0  0  0  0  0  0  0  0
   11.3515   10.9177   24.3851 C   0  0  0  0  0  0  0  0  0  0  0  0
  1  2  1  0
  2  3  1  0
  3  4  1  0
  4  5  1  0
  5  6  1  0
  6  7  1  0
  7  8  1  0
  8  9  1  0
  9 10  2  0
  6 11  1  0
 11 12  1  0
 12  3  1  0
M  END
>  <tags>  (282) 
{'openbind_a71ev2a_c1_knitwork_pure', 'fragmenstein_placed'}

>  <distance_score>  (282) 
0.92626

>  <ref_mols>  (282) 
A4237a,A0875a

>  <smiles>  (282) 
CSC1CCN(CCC=O)CC1

>  <HIPPO Pose ID>  (282) 
256452

>  <inchikey>  (282) 
WTVLMOGGYBHAKC-UHFFFAOYSA-N

>  <ref_pdb>  (282) 
A0528b

>  <alias>  (282) 
C55226-P87

>  <energy_score>  (282) 
-4.682291

>  <HIPPO Compound ID>  (282) 
46065

$$$$
C55237-P87
     RDKit          3D

 13 13  0  0  0  0  0  0  0  0999 V2000
   15.0439   10.9084   25.2181 C   0  0  0  0  0  0  0  0  0  0  0  0
   13.6495   10.5530   25.2884 O   0  0  0  0  0  0  0  0  0  0  0  0
   12.8055   11.5582   24.7190 C   0  0  2  0  0  0  0  0  0  0  0  0
   12.6687   12.7918   25.5676 C   0  0  0  0  0  0  0  0  0  0  0  0
   11.2258   13.1761   25.7945 C   0  0  0  0  0  0  0  0  0  0  0  0
   10.4206   13.2523   24.5891 N   0  0  0  0  0  0  0  0  0  0  0  0
    9.0461   13.6368   24.8189 C   0  0  0  0  0  0  0  0  0  0  0  0
    7.8814   12.7751   24.3613 C   0  0  0  0  0  0  0  0  0  0  0  0
    7.6866   11.5655   25.2323 C   0  0  0  0  0  0  0  0  0  0  0  0
    8.1578   10.4559   25.0107 O   0  0  0  0  0  0  0  0  0  0  0  0
   10.6675   12.2101   23.6095 C   0  0  1  0  0  0  0  0  0  0  0  0
   11.3916   12.9569   22.4868 C   0  0  0  0  0  0  0  0  0  0  0  0
   11.3972   11.0586   24.3129 C   0  0  0  0  0  0  0  0  0  0  0  0
  1  2  1  0
  3  2  1  1
  3  4  1  0
  4  5  1  0
  5  6  1  0
  6  7  1  0
  7  8  1  0
  8  9  1  0
  9 10  2  0
  6 11  1  0
 11 12  1  6
 11 13  1  0
 13  3  1  0
M  END
>  <tags>  (283) 
{'openbind_a71ev2a_c1_knitwork_pure', 'fragmenstein_placed'}

>  <distance_score>  (283) 
0.945218

>  <ref_mols>  (283) 
A4237a,A0875a

>  <smiles>  (283) 
CO[C@@H]1CCN(CCC=O)[C@@H](C)C1

>  <HIPPO Pose ID>  (283) 
256470

>  <inchikey>  (283) 
YTXBRSZQZDSVHR-UHFFFAOYSA-N

>  <ref_pdb>  (283) 
A0528b

>  <alias>  (283) 
C55237-P87

>  <energy_score>  (283) 
-1.113807

>  <HIPPO Compound ID>  (283) 
45987

$$$$
C12359-P320
     RDKit          3D

 13 13  0  0  0  0  0  0  0  0999 V2000
    7.1563   15.9318   26.4640 C   0  0  0  0  0  0  0  0  0  0  0  0
    7.9781   15.4607   25.2787 C   0  0  0  0  0  0  0  0  0  0  0  0
    7.0934   15.0618   24.1019 C   0  0  0  0  0  0  0  0  0  0  0  0
    7.9308   13.9547   22.9717 S   0  0  0  0  0  0  0  0  0  0  0  0
    8.9669   14.7145   22.3082 O   0  0  0  0  0  0  0  0  0  0  0  0
    6.9776   13.1926   22.1997 O   0  0  0  0  0  0  0  0  0  0  0  0
    8.7481   12.8558   23.9724 N   0  0  0  0  0  0  0  0  0  0  0  0
    8.0410   11.8302   24.6937 C   0  0  0  0  0  0  0  0  0  0  0  0
    7.0472   12.1220   25.6274 C   0  0  0  0  0  0  0  0  0  0  0  0
    6.4221   11.1130   26.3559 C   0  0  0  0  0  0  0  0  0  0  0  0
    6.8326    9.8179   26.1466 C   0  0  0  0  0  0  0  0  0  0  0  0
    7.8216    9.4851   25.2936 N   0  0  0  0  0  0  0  0  0  0  0  0
    8.3995   10.4920   24.5819 C   0  0  0  0  0  0  0  0  0  0  0  0
  1  2  1  0
  2  3  1  0
  3  4  1  0
  4  5  2  0
  4  6  2  0
  4  7  1  0
  7  8  1  0
  8  9  2  0
  9 10  1  0
 10 11  2  0
 11 12  1  0
 12 13  2  0
 13  8  1  0
M  END
>  <tags>  (284) 
{'openbind_a71ev2a_c1_knitwork_pure', 'fragmenstein_placed'}

>  <distance_score>  (284) 
0.910691

>  <ref_mols>  (284) 
A4347a,A0719a

>  <smiles>  (284) 
CCCS(=O)(=O)Nc1cccnc1

>  <HIPPO Pose ID>  (284) 
258290

>  <inchikey>  (284) 
MJMCOCNIQIOMAD-UHFFFAOYSA-N

>  <ref_pdb>  (284) 
A0528b

>  <alias>  (284) 
C12359-P320

>  <energy_score>  (284) 
-22.928275

>  <HIPPO Compound ID>  (284) 
51490

$$$$
C37158-P124
     RDKit          3D

 16 18  0  0  0  0  0  0  0  0999 V2000
   10.2288    8.4209   23.0509 Br  0  0  0  0  0  0  0  0  0  0  0  0
   10.0979   10.1203   23.7900 C   0  0  0  0  0  0  0  0  0  0  0  0
   11.1606   10.9963   23.6114 C   0  0  0  0  0  0  0  0  0  0  0  0
   11.1207   12.2361   24.2171 C   0  0  0  0  0  0  0  0  0  0  0  0
    9.9612   12.6136   24.8601 C   0  0  0  0  0  0  0  0  0  0  0  0
    8.9097   11.7226   25.0756 C   0  0  0  0  0  0  0  0  0  0  0  0
    8.9818   10.4559   24.5485 C   0  0  0  0  0  0  0  0  0  0  0  0
    7.9358   12.2539   25.9258 N   0  0  0  0  0  0  0  0  0  0  0  0
    6.5514   11.8083   25.8298 C   0  0  0  0  0  0  0  0  0  0  0  0
    5.5318   12.5111   26.6893 C   0  0  0  0  0  0  0  0  0  0  0  0
    4.7546   13.6090   26.3707 C   0  0  0  0  0  0  0  0  0  0  0  0
    3.9893   13.8514   27.4762 N   0  0  0  0  0  0  0  0  0  0  0  0
    4.3149   12.9112   28.4118 C   0  0  0  0  0  0  0  0  0  0  0  0
    5.2374   12.0871   27.9694 N   0  0  0  0  0  0  0  0  0  0  0  0
    8.1734   13.6957   25.8581 C   0  0  0  0  0  0  0  0  0  0  0  0
    9.6337   13.9323   25.4609 C   0  0  0  0  0  0  0  0  0  0  0  0
  1  2  1  0
  2  3  2  0
  3  4  1  0
  4  5  2  0
  5  6  1  0
  6  7  2  0
  6  8  1  0
  8  9  1  0
  9 10  1  0
 10 11  2  0
 11 12  1  0
 12 13  1  0
 13 14  2  0
  8 15  1  0
 15 16  1  0
  7  2  1  0
 14 10  1  0
 16  5  1  0
M  END
>  <tags>  (285) 
{'openbind_a71ev2a_c1_knitwork_pure', 'fragmenstein_placed'}

>  <distance_score>  (285) 
0.914892

>  <ref_mols>  (285) 
A2972a,A1778a

>  <smiles>  (285) 
Brc1ccc2c(c1)N(Cc1c[nH]cn1)CC2

>  <HIPPO Pose ID>  (285) 
259606

>  <inchikey>  (285) 
QUWCTZUWOPCIPH-UHFFFAOYSA-N

>  <ref_pdb>  (285) 
A0528b

>  <alias>  (285) 
C37158-P124

>  <energy_score>  (285) 
-13.595176

>  <HIPPO Compound ID>  (285) 
35612

$$$$
C37167-P124
     RDKit          3D

 19 21  0  0  0  0  0  0  0  0999 V2000
   10.4592    8.1673   23.5253 C   0  0  0  0  0  0  0  0  0  0  0  0
    9.9819    9.2287   22.7302 O   0  0  0  0  0  0  0  0  0  0  0  0
   10.0295   10.3557   23.4926 C   0  0  0  0  0  0  0  0  0  0  0  0
   11.1583   11.1596   23.3836 C   0  0  0  0  0  0  0  0  0  0  0  0
   11.2504   12.2891   24.1728 C   0  0  0  0  0  0  0  0  0  0  0  0
   10.1397   12.6776   24.8976 C   0  0  0  0  0  0  0  0  0  0  0  0
    9.0252   11.8551   25.0200 C   0  0  0  0  0  0  0  0  0  0  0  0
    8.9830   10.6539   24.3627 C   0  0  0  0  0  0  0  0  0  0  0  0
    8.1966   12.3454   26.0646 N   0  0  0  0  0  0  0  0  0  0  0  0
    6.5383   12.1235   26.1260 S   0  0  0  0  0  0  0  0  0  0  0  0
    6.0838   12.6383   27.4053 O   0  0  0  0  0  0  0  0  0  0  0  0
    6.2127   10.7763   25.7254 O   0  0  0  0  0  0  0  0  0  0  0  0
    5.8271   13.2419   24.9828 C   0  0  0  0  0  0  0  0  0  0  0  0
    4.6526   13.9513   25.1507 C   0  0  0  0  0  0  0  0  0  0  0  0
    4.5713   14.7678   24.0561 N   0  0  0  0  0  0  0  0  0  0  0  0
    5.7091   14.5881   23.3187 C   0  0  0  0  0  0  0  0  0  0  0  0
    6.5091   13.6978   23.8593 N   0  0  0  0  0  0  0  0  0  0  0  0
    8.5999   13.7389   26.3224 C   0  0  0  0  0  0  0  0  0  0  0  0
    9.9540   13.9432   25.6593 C   0  0  0  0  0  0  0  0  0  0  0  0
  1  2  1  0
  2  3  1  0
  3  4  2  0
  4  5  1  0
  5  6  2  0
  6  7  1  0
  7  8  2  0
  7  9  1  0
  9 10  1  0
 10 11  2  0
 10 12  2  0
 10 13  1  0
 13 14  2  0
 14 15  1  0
 15 16  1  0
 16 17  2  0
  9 18  1  0
 18 19  1  0
  8  3  1  0
 17 13  1  0
 19  6  1  0
M  END
>  <tags>  (286) 
{'openbind_a71ev2a_c1_knitwork_pure', 'fragmenstein_placed'}

>  <distance_score>  (286) 
0.907192

>  <ref_mols>  (286) 
A2972a,A1778a

>  <smiles>  (286) 
COc1ccc2c(c1)N(S(=O)(=O)c1c[nH]cn1)CC2

>  <HIPPO Pose ID>  (286) 
259612

>  <inchikey>  (286) 
AERCOVUKSAMYCJ-UHFFFAOYSA-N

>  <ref_pdb>  (286) 
A0528b

>  <alias>  (286) 
C37167-P124

>  <energy_score>  (286) 
-26.697906

>  <HIPPO Compound ID>  (286) 
21631

$$$$
C37174-P124
     RDKit          3D

 19 21  0  0  0  0  0  0  0  0999 V2000
   10.2778    7.7259   22.9865 N   0  0  0  0  0  0  0  0  0  0  0  0
   10.1040    8.8120   23.3296 C   0  0  0  0  0  0  0  0  0  0  0  0
   10.0161   10.1425   23.7925 C   0  0  0  0  0  0  0  0  0  0  0  0
   11.1089   10.9808   23.5677 C   0  0  0  0  0  0  0  0  0  0  0  0
   11.1511   12.2193   24.1772 C   0  0  0  0  0  0  0  0  0  0  0  0
   10.0443   12.6444   24.8836 C   0  0  0  0  0  0  0  0  0  0  0  0
    8.9509   11.8107   25.0906 C   0  0  0  0  0  0  0  0  0  0  0  0
    8.9348   10.5386   24.5758 C   0  0  0  0  0  0  0  0  0  0  0  0
    8.1288   12.3542   26.1117 N   0  0  0  0  0  0  0  0  0  0  0  0
    6.4661   12.1556   26.1558 S   0  0  0  0  0  0  0  0  0  0  0  0
    6.0016   12.7052   27.4161 O   0  0  0  0  0  0  0  0  0  0  0  0
    6.1347   10.8027   25.7782 O   0  0  0  0  0  0  0  0  0  0  0  0
    5.7962   13.2558   24.9710 C   0  0  0  0  0  0  0  0  0  0  0  0
    4.6292   13.9869   25.0892 C   0  0  0  0  0  0  0  0  0  0  0  0
    4.5904   14.7751   23.9709 N   0  0  0  0  0  0  0  0  0  0  0  0
    5.7469   14.5621   23.2724 C   0  0  0  0  0  0  0  0  0  0  0  0
    6.5166   13.6720   23.8556 N   0  0  0  0  0  0  0  0  0  0  0  0
    8.5507   13.7492   26.3242 C   0  0  0  0  0  0  0  0  0  0  0  0
    9.8716   13.9418   25.5921 C   0  0  0  0  0  0  0  0  0  0  0  0
  1  2  3  0
  2  3  1  0
  3  4  2  0
  4  5  1  0
  5  6  2  0
  6  7  1  0
  7  8  2  0
  7  9  1  0
  9 10  1  0
 10 11  2  0
 10 12  2  0
 10 13  1  0
 13 14  2  0
 14 15  1  0
 15 16  1  0
 16 17  2  0
  9 18  1  0
 18 19  1  0
  8  3  1  0
 17 13  1  0
 19  6  1  0
M  END
>  <tags>  (287) 
{'openbind_a71ev2a_c1_knitwork_pure', 'fragmenstein_placed'}

>  <distance_score>  (287) 
0.856171

>  <ref_mols>  (287) 
A2972a,A1778a

>  <smiles>  (287) 
N#Cc1ccc2c(c1)N(S(=O)(=O)c1c[nH]cn1)CC2

>  <HIPPO Pose ID>  (287) 
259622

>  <inchikey>  (287) 
QFIAQCXWMHUYLP-UHFFFAOYSA-N

>  <ref_pdb>  (287) 
A0528b

>  <alias>  (287) 
C37174-P124

>  <energy_score>  (287) 
-26.481041

>  <HIPPO Compound ID>  (287) 
46544

$$$$
C46502-P159
     RDKit          3D

 16 17  0  0  0  0  0  0  0  0999 V2000
    6.3271   14.3027   22.4729 C   0  0  0  0  0  0  0  0  0  0  0  0
    7.5400   13.5922   22.9029 N   0  0  0  0  0  0  0  0  0  0  0  0
    7.4618   12.7621   24.0374 C   0  0  0  0  0  0  0  0  0  0  0  0
    6.2822   12.7277   24.8089 C   0  0  0  0  0  0  0  0  0  0  0  0
    6.1340   11.8413   25.8683 C   0  0  0  0  0  0  0  0  0  0  0  0
    7.0588   10.9383   26.2167 N   0  0  0  0  0  0  0  0  0  0  0  0
    8.1998   10.9802   25.5093 C   0  0  0  0  0  0  0  0  0  0  0  0
    8.4675   11.8813   24.4822 C   0  0  0  0  0  0  0  0  0  0  0  0
    9.8301   11.8985   24.0823 C   0  0  0  0  0  0  0  0  0  0  0  0
   10.9775   11.9856   23.9379 N   0  0  0  0  0  0  0  0  0  0  0  0
    8.8434   14.0565   22.3545 C   0  0  2  0  0  0  0  0  0  0  0  0
    9.6268   14.9092   23.3502 C   0  0  0  0  0  0  0  0  0  0  0  0
   11.0148   15.1930   22.7829 C   0  0  0  0  0  0  0  0  0  0  0  0
   10.9843   15.7830   21.3774 C   0  0  0  0  0  0  0  0  0  0  0  0
   10.1098   15.0618   20.4619 N   0  0  0  0  0  0  0  0  0  0  0  0
    8.7803   14.8887   21.0541 C   0  0  0  0  0  0  0  0  0  0  0  0
  1  2  1  0
  2  3  1  0
  3  4  2  0
  4  5  1  0
  5  6  2  0
  6  7  1  0
  7  8  2  0
  8  9  1  0
  9 10  3  0
 11  2  1  1
 11 12  1  0
 12 13  1  0
 13 14  1  0
 14 15  1  0
 15 16  1  0
  8  3  1  0
 16 11  1  0
M  END
>  <tags>  (288) 
{'openbind_a71ev2a_c1_knitwork_pure', 'fragmenstein_placed'}

>  <distance_score>  (288) 
0.850591

>  <ref_mols>  (288) 
A3223a,A2629a

>  <smiles>  (288) 
CN(c1ccncc1C#N)[C@@H]1CCCNC1

>  <HIPPO Pose ID>  (288) 
259703

>  <inchikey>  (288) 
AGNKHDPFSMAPGP-UHFFFAOYSA-N

>  <ref_pdb>  (288) 
A0528b

>  <alias>  (288) 
C46502-P159

>  <energy_score>  (288) 
-23.321177

>  <HIPPO Compound ID>  (288) 
54511

$$$$
C48482-P487
     RDKit          3D

 23 25  0  0  0  0  0  0  0  0999 V2000
    6.4585   14.0142   22.5599 C   0  0  0  0  0  0  0  0  0  0  0  0
    7.6511   13.3050   23.1907 C   0  0  1  0  0  0  0  0  0  0  0  0
    8.8165   14.1429   23.0291 N   0  0  0  0  0  0  0  0  0  0  0  0
   10.2945   13.9198   23.4771 C   0  0  0  0  0  0  0  0  0  0  0  0
   10.7730   13.0595   24.1117 O   0  0  0  0  0  0  0  0  0  0  0  0
   11.1074   15.1112   22.9764 C   0  0  0  0  0  0  0  0  0  0  0  0
   11.0559   15.2475   21.5373 N   0  0  0  0  0  0  0  0  0  0  0  0
   10.1639   15.9856   20.8107 C   0  0  0  0  0  0  0  0  0  0  0  0
   10.3331   15.5888   19.5080 C   0  0  0  0  0  0  0  0  0  0  0  0
   11.4458   14.7436   19.5328 C   0  0  0  0  0  0  0  0  0  0  0  0
   11.8932   14.5410   20.7711 N   0  0  0  0  0  0  0  0  0  0  0  0
    7.4883   12.8432   24.6574 C   0  0  0  0  0  0  0  0  0  0  0  0
    7.9905   11.3911   24.8243 C   0  0  0  0  0  0  0  0  0  0  0  0
    6.9971   10.4745   25.5212 C   0  0  0  0  0  0  0  0  0  0  0  0
    6.4751   11.0710   26.7424 N   0  0  0  0  0  0  0  0  0  0  0  0
    5.5348   10.2729   27.4045 C   0  0  0  0  0  0  0  0  0  0  0  0
    4.7231    9.4731   26.6967 N   0  0  0  0  0  0  0  0  0  0  0  0
    3.8361    8.7140   27.3744 C   0  0  0  0  0  0  0  0  0  0  0  0
    3.7131    8.7319   28.7362 C   0  0  0  0  0  0  0  0  0  0  0  0
    4.5699    9.5898   29.3752 C   0  0  0  0  0  0  0  0  0  0  0  0
    5.4670   10.3755   28.7420 N   0  0  0  0  0  0  0  0  0  0  0  0
    6.0167   12.4579   26.6790 C   0  0  0  0  0  0  0  0  0  0  0  0
    6.0903   13.0233   25.2594 C   0  0  0  0  0  0  0  0  0  0  0  0
  2  1  1  1
  2  3  1  0
  3  4  1  0
  4  5  2  0
  4  6  1  0
  6  7  1  0
  7  8  1  0
  8  9  2  0
  9 10  1  0
 10 11  2  0
  2 12  1  0
 12 13  1  0
 13 14  1  0
 14 15  1  0
 15 16  1  0
 16 17  2  0
 17 18  1  0
 18 19  2  0
 19 20  1  0
 20 21  2  0
 15 22  1  0
 22 23  1  0
 11  7  1  0
 23 12  1  0
 21 16  1  0
M  END
>  <tags>  (289) 
{'openbind_a71ev2a_c1_knitwork_pure', 'fragmenstein_placed'}

>  <distance_score>  (289) 
0.925535

>  <ref_mols>  (289) 
A0556a,A4846a

>  <smiles>  (289) 
C[C@@H](NC(=O)Cn1cccn1)C1CCN(c2ncccn2)CC1

>  <HIPPO Pose ID>  (289) 
262775

>  <inchikey>  (289) 
IGUBAEGLTUZHCE-UHFFFAOYSA-N

>  <ref_pdb>  (289) 
A0528b

>  <alias>  (289) 
C48482-P487

>  <energy_score>  (289) 
-7.283953

>  <HIPPO Compound ID>  (289) 
46596

$$$$
C48489-P487
     RDKit          3D

 20 21  0  0  0  0  0  0  0  0999 V2000
    6.4388   14.3310   22.4532 C   0  0  0  0  0  0  0  0  0  0  0  0
    7.4120   13.2970   22.9908 C   0  0  1  0  0  0  0  0  0  0  0  0
    8.7197   13.8491   23.1522 N   0  0  0  0  0  0  0  0  0  0  0  0
    9.2254   14.9794   24.0781 C   0  0  0  0  0  0  0  0  0  0  0  0
    8.6692   15.5830   24.9084 O   0  0  0  0  0  0  0  0  0  0  0  0
   10.6544   15.2977   23.6847 C   0  0  0  0  0  0  0  0  0  0  0  0
   10.8734   15.3300   22.2515 N   0  0  0  0  0  0  0  0  0  0  0  0
   10.2588   16.1279   21.3302 C   0  0  0  0  0  0  0  0  0  0  0  0
   10.6579   15.6686   20.0980 C   0  0  0  0  0  0  0  0  0  0  0  0
   11.5192   14.6002   20.3818 C   0  0  0  0  0  0  0  0  0  0  0  0
   11.6083   14.3541   21.6944 N   0  0  0  0  0  0  0  0  0  0  0  0
    6.8576   12.4913   24.1659 C   0  0  0  0  0  0  0  0  0  0  0  0
    7.8137   11.4114   24.6467 C   0  0  0  0  0  0  0  0  0  0  0  0
    7.0933   10.4347   25.5765 C   0  0  0  0  0  0  0  0  0  0  0  0
    5.9559   10.9847   26.3275 N   0  0  0  0  0  0  0  0  0  0  0  0
    5.6784   10.2138   27.5543 C   0  0  0  0  0  0  0  0  0  0  0  0
    4.2187    9.8078   27.7583 C   0  0  0  0  0  0  0  0  0  0  0  0
    3.8228    8.8325   26.7925 O   0  0  0  0  0  0  0  0  0  0  0  0
    6.1052   12.4146   26.6083 C   0  0  0  0  0  0  0  0  0  0  0  0
    6.2676   13.2704   25.3437 C   0  0  0  0  0  0  0  0  0  0  0  0
  2  1  1  1
  2  3  1  0
  3  4  1  0
  4  5  2  0
  4  6  1  0
  6  7  1  0
  7  8  1  0
  8  9  2  0
  9 10  1  0
 10 11  2  0
  2 12  1  0
 12 13  1  0
 13 14  1  0
 14 15  1  0
 15 16  1  0
 16 17  1  0
 17 18  1  0
 15 19  1  0
 19 20  1  0
 11  7  1  0
 20 12  1  0
M  END
>  <tags>  (290) 
{'openbind_a71ev2a_c1_knitwork_pure', 'fragmenstein_placed'}

>  <distance_score>  (290) 
0.973778

>  <ref_mols>  (290) 
A0556a,A4846a

>  <smiles>  (290) 
C[C@@H](NC(=O)Cn1cccn1)C1CCN(CCO)CC1

>  <HIPPO Pose ID>  (290) 
262779

>  <inchikey>  (290) 
UAGGKQWASMNBKS-UHFFFAOYSA-N

>  <ref_pdb>  (290) 
A0528b

>  <alias>  (290) 
C48489-P487

>  <energy_score>  (290) 
-9.765072

>  <HIPPO Compound ID>  (290) 
99297

$$$$
C48494-P487
     RDKit          3D

 21 22  0  0  0  0  0  0  0  0999 V2000
    6.6477   14.4028   22.4680 C   0  0  0  0  0  0  0  0  0  0  0  0
    7.6565   13.3883   22.9831 C   0  0  1  0  0  0  0  0  0  0  0  0
    8.9772   13.9399   22.8548 N   0  0  0  0  0  0  0  0  0  0  0  0
    9.7165   14.9927   23.7191 C   0  0  0  0  0  0  0  0  0  0  0  0
    9.3951   15.5170   24.7134 O   0  0  0  0  0  0  0  0  0  0  0  0
   11.0087   15.3962   23.0243 C   0  0  0  0  0  0  0  0  0  0  0  0
   10.9690   15.3868   21.5793 N   0  0  0  0  0  0  0  0  0  0  0  0
   10.0655   16.0137   20.7718 C   0  0  0  0  0  0  0  0  0  0  0  0
   10.3210   15.5578   19.5026 C   0  0  0  0  0  0  0  0  0  0  0  0
   11.4340   14.7215   19.6391 C   0  0  0  0  0  0  0  0  0  0  0  0
   11.8021   14.5789   20.9128 N   0  0  0  0  0  0  0  0  0  0  0  0
    7.4004   12.8252   24.3974 C   0  0  0  0  0  0  0  0  0  0  0  0
    7.7776   11.3428   24.3913 C   0  0  0  0  0  0  0  0  0  0  0  0
    7.3273   10.5939   25.6231 C   0  0  0  0  0  0  0  0  0  0  0  0
    5.9491   10.8406   26.0686 N   0  0  0  0  0  0  0  0  0  0  0  0
    5.7153   10.1402   27.3445 C   0  0  0  0  0  0  0  0  0  0  0  0
    4.2747    9.7509   27.6307 C   0  0  0  0  0  0  0  0  0  0  0  0
    4.1883    8.8708   28.8712 C   0  0  0  0  0  0  0  0  0  0  0  0
    2.8386    8.4752   29.0596 O   0  0  0  0  0  0  0  0  0  0  0  0
    5.7230   12.2849   26.2269 C   0  0  0  0  0  0  0  0  0  0  0  0
    5.9727   13.0263   24.9166 C   0  0  0  0  0  0  0  0  0  0  0  0
  2  1  1  1
  2  3  1  0
  3  4  1  0
  4  5  2  0
  4  6  1  0
  6  7  1  0
  7  8  1  0
  8  9  2  0
  9 10  1  0
 10 11  2  0
  2 12  1  0
 12 13  1  0
 13 14  1  0
 14 15  1  0
 15 16  1  0
 16 17  1  0
 17 18  1  0
 18 19  1  0
 15 20  1  0
 20 21  1  0
 11  7  1  0
 21 12  1  0
M  END
>  <tags>  (291) 
{'openbind_a71ev2a_c1_knitwork_pure', 'fragmenstein_placed'}

>  <distance_score>  (291) 
0.840788

>  <ref_mols>  (291) 
A0556a,A4846a

>  <smiles>  (291) 
C[C@@H](NC(=O)Cn1cccn1)C1CCN(CCCO)CC1

>  <HIPPO Pose ID>  (291) 
262784

>  <inchikey>  (291) 
ISLLNGYBDHENHK-UHFFFAOYSA-N

>  <ref_pdb>  (291) 
A0528b

>  <alias>  (291) 
C48494-P487

>  <energy_score>  (291) 
-30.542575

>  <HIPPO Compound ID>  (291) 
79153

$$$$
C48501-P487
     RDKit          3D

 22 23  0  0  0  0  0  0  0  0999 V2000
    2.1970    8.6214   28.1928 C   0  0  0  0  0  0  0  0  0  0  0  0
    3.5205    8.7506   27.4593 C   0  0  0  0  0  0  0  0  0  0  0  0
    4.3741    9.8440   28.0835 C   0  0  1  0  0  0  0  0  0  0  0  0
    4.6796    9.4066   29.3510 F   0  0  0  0  0  0  0  0  0  0  0  0
    5.7156   10.1057   27.3875 C   0  0  0  0  0  0  0  0  0  0  0  0
    5.8129   10.9929   26.2053 N   0  0  0  0  0  0  0  0  0  0  0  0
    7.0962   10.7407   25.5120 C   0  0  0  0  0  0  0  0  0  0  0  0
    7.4137   11.7149   24.3813 C   0  0  0  0  0  0  0  0  0  0  0  0
    7.3149   13.1689   24.8304 C   0  0  0  0  0  0  0  0  0  0  0  0
    7.6074   14.1871   23.7088 C   0  0  2  0  0  0  0  0  0  0  0  0
    6.6994   14.1056   22.4842 C   0  0  0  0  0  0  0  0  0  0  0  0
    8.9851   14.0918   23.2678 N   0  0  0  0  0  0  0  0  0  0  0  0
   10.3072   14.4740   23.9945 C   0  0  0  0  0  0  0  0  0  0  0  0
   10.4900   14.8511   25.0873 O   0  0  0  0  0  0  0  0  0  0  0  0
   11.4565   14.2725   23.0123 C   0  0  0  0  0  0  0  0  0  0  0  0
   11.2644   14.9001   21.7178 N   0  0  0  0  0  0  0  0  0  0  0  0
   10.4915   15.9765   21.4065 C   0  0  0  0  0  0  0  0  0  0  0  0
   10.4234   16.0073   20.0360 C   0  0  0  0  0  0  0  0  0  0  0  0
   11.2567   14.9702   19.6026 C   0  0  0  0  0  0  0  0  0  0  0  0
   11.7806   14.3020   20.6315 N   0  0  0  0  0  0  0  0  0  0  0  0
    5.9366   13.3801   25.4689 C   0  0  0  0  0  0  0  0  0  0  0  0
    5.7098   12.4019   26.6235 C   0  0  0  0  0  0  0  0  0  0  0  0
  1  2  1  0
  2  3  1  0
  3  4  1  1
  3  5  1  0
  5  6  1  0
  6  7  1  0
  7  8  1  0
  8  9  1  0
  9 10  1  0
 10 11  1  6
 10 12  1  0
 12 13  1  0
 13 14  2  0
 13 15  1  0
 15 16  1  0
 16 17  1  0
 17 18  2  0
 18 19  1  0
 19 20  2  0
  9 21  1  0
 21 22  1  0
 22  6  1  0
 20 16  1  0
M  END
>  <tags>  (292) 
{'openbind_a71ev2a_c1_knitwork_pure', 'fragmenstein_placed'}

>  <distance_score>  (292) 
0.962745

>  <ref_mols>  (292) 
A0556a,A4846a

>  <smiles>  (292) 
CC[C@@H](F)CN1CCC([C@H](C)NC(=O)Cn2cccn2)CC1

>  <HIPPO Pose ID>  (292) 
262789

>  <inchikey>  (292) 
GXDXQSSPAOBTRI-UHFFFAOYSA-N

>  <ref_pdb>  (292) 
A0528b

>  <alias>  (292) 
C48501-P487

>  <energy_score>  (292) 
-28.332592

>  <HIPPO Compound ID>  (292) 
47020

$$$$
C54239-P151
     RDKit          3D

 15 16  0  0  0  0  0  0  0  0999 V2000
    7.7120   14.0401   25.5089 C   0  0  0  0  0  0  0  0  0  0  0  0
    8.5701   13.1105   24.6535 C   0  0  2  0  0  0  0  0  0  0  0  0
    8.4765   13.5691   23.1915 C   0  0  0  0  0  0  0  0  0  0  0  0
    7.5131   13.2223   22.4991 O   0  0  0  0  0  0  0  0  0  0  0  0
    9.5746   14.3902   22.6324 C   0  0  0  0  0  0  0  0  0  0  0  0
   10.7813   14.8256   23.2960 C   0  0  0  0  0  0  0  0  0  0  0  0
   11.6362   15.4516   22.4136 C   0  0  0  0  0  0  0  0  0  0  0  0
   10.8814   15.5209   20.8856 S   0  0  0  0  0  0  0  0  0  0  0  0
    9.4907   14.7665   21.3513 N   0  0  0  0  0  0  0  0  0  0  0  0
    8.2359   11.6354   24.8154 C   0  0  0  0  0  0  0  0  0  0  0  0
    7.2175   11.1822   25.6634 C   0  0  0  0  0  0  0  0  0  0  0  0
    7.0067    9.8247   25.7937 C   0  0  0  0  0  0  0  0  0  0  0  0
    7.7336    8.8997   25.1453 N   0  0  0  0  0  0  0  0  0  0  0  0
    8.6961    9.3386   24.3049 C   0  0  0  0  0  0  0  0  0  0  0  0
    8.9841   10.6785   24.1150 C   0  0  0  0  0  0  0  0  0  0  0  0
  2  1  1  1
  2  3  1  0
  3  4  2  0
  3  5  1  0
  5  6  1  0
  6  7  2  0
  7  8  1  0
  8  9  1  0
  2 10  1  0
 10 11  2  0
 11 12  1  0
 12 13  2  0
 13 14  1  0
 14 15  2  0
  9  5  2  0
 15 10  1  0
M  END
>  <tags>  (293) 
{'openbind_a71ev2a_c1_knitwork_pure', 'fragmenstein_placed'}

>  <distance_score>  (293) 
0.798066

>  <ref_mols>  (293) 
A1775a,A1779a,A3194a

>  <smiles>  (293) 
C[C@H](C(=O)c1ccsn1)c1ccncc1

>  <HIPPO Pose ID>  (293) 
263647

>  <inchikey>  (293) 
YTDDXKFXAHOBOJ-UHFFFAOYSA-N

>  <ref_pdb>  (293) 
A1779a

>  <alias>  (293) 
C54239-P151

>  <energy_score>  (293) 
-27.267225

>  <HIPPO Compound ID>  (293) 
54609

$$$$
C3756-P159
     RDKit          3D

 11 12  0  0  0  0  0  0  0  0999 V2000
    6.7918   11.1122   26.0377 C   0  0  0  0  0  0  0  0  0  0  0  0
    6.8807   12.2033   25.2179 C   0  0  0  0  0  0  0  0  0  0  0  0
    5.8365   13.0608   25.6426 C   0  0  0  0  0  0  0  0  0  0  0  0
    5.3830   14.3278   24.9877 C   0  0  2  0  0  0  0  0  0  0  0  0
    4.5775   13.9719   23.7268 C   0  0  0  0  0  0  0  0  0  0  0  0
    4.2998   15.1876   22.8687 C   0  0  0  0  0  0  0  0  0  0  0  0
    5.6056   15.9039   22.5628 C   0  0  0  0  0  0  0  0  0  0  0  0
    6.2567   16.3619   23.7849 N   0  0  0  0  0  0  0  0  0  0  0  0
    6.5796   15.2433   24.6626 C   0  0  0  0  0  0  0  0  0  0  0  0
    5.1879   12.5620   26.7027 N   0  0  0  0  0  0  0  0  0  0  0  0
    5.7560   11.3623   26.8850 N   0  0  0  0  0  0  0  0  0  0  0  0
  1  2  2  0
  2  3  1  0
  4  3  1  6
  4  5  1  0
  5  6  1  0
  6  7  1  0
  7  8  1  0
  8  9  1  0
  3 10  2  0
 10 11  1  0
 11  1  1  0
  9  4  1  0
M  END
>  <tags>  (294) 
{'openbind_a71ev2a_c1_knitwork_pure', 'fragmenstein_placed'}

>  <distance_score>  (294) 
0.953296

>  <ref_mols>  (294) 
A2304a,A3223a

>  <smiles>  (294) 
c1cc([C@@H]2CCCNC2)n[nH]1

>  <HIPPO Pose ID>  (294) 
263806

>  <inchikey>  (294) 
CGTYQSSIZNKAKB-UHFFFAOYSA-N

>  <ref_pdb>  (294) 
A1779a

>  <alias>  (294) 
C3756-P159

>  <energy_score>  (294) 
-19.026215

>  <HIPPO Compound ID>  (294) 
46745

$$$$
C3275-P439
     RDKit          3D

 12 13  0  0  0  0  0  0  0  0999 V2000
    9.2754   10.3656   23.7913 C   0  0  0  0  0  0  0  0  0  0  0  0
    9.5594   11.6351   23.3328 C   0  0  0  0  0  0  0  0  0  0  0  0
    8.8727   12.6908   23.8964 C   0  0  0  0  0  0  0  0  0  0  0  0
    9.1526   14.0092   23.5787 N   0  0  0  0  0  0  0  0  0  0  0  0
   10.4831   14.5076   23.9126 C   0  0  0  0  0  0  0  0  0  0  0  0
   11.4042   14.5490   22.6993 C   0  0  0  0  0  0  0  0  0  0  0  0
   10.7646   15.3041   21.5451 C   0  0  0  0  0  0  0  0  0  0  0  0
    9.4077   14.7007   21.2098 C   0  0  0  0  0  0  0  0  0  0  0  0
    8.4854   14.6141   22.4245 C   0  0  0  0  0  0  0  0  0  0  0  0
    7.9333   12.4693   24.8309 N   0  0  0  0  0  0  0  0  0  0  0  0
    7.7403   11.1989   25.2198 C   0  0  0  0  0  0  0  0  0  0  0  0
    8.3725   10.1178   24.7500 N   0  0  0  0  0  0  0  0  0  0  0  0
  1  2  2  0
  2  3  1  0
  3  4  1  0
  4  5  1  0
  5  6  1  0
  6  7  1  0
  7  8  1  0
  8  9  1  0
  3 10  2  0
 10 11  1  0
 11 12  2  0
 12  1  1  0
  9  4  1  0
M  END
>  <tags>  (295) 
{'openbind_a71ev2a_c1_knitwork_pure', 'fragmenstein_placed'}

>  <distance_score>  (295) 
0.839272

>  <ref_mols>  (295) 
A4706a,A1068a

>  <smiles>  (295) 
c1cc(N2CCCCC2)ncn1

>  <HIPPO Pose ID>  (295) 
263997

>  <inchikey>  (295) 
IHQQJGYNMPUAJX-UHFFFAOYSA-N

>  <ref_pdb>  (295) 
A1779a

>  <alias>  (295) 
C3275-P439

>  <energy_score>  (295) 
-11.405106

>  <HIPPO Compound ID>  (295) 
48173

$$$$
C45912-P439
     RDKit          3D

 21 22  0  0  0  0  0  0  0  0999 V2000
    1.6150   14.0834   26.1194 C   0  0  0  0  0  0  0  0  0  0  0  0
    2.3752   15.1724   26.7989 C   0  0  0  0  0  0  0  0  0  0  0  0
    3.5450   15.6027   26.4274 C   0  0  0  0  0  0  0  0  0  0  0  0
    4.7161   16.0245   26.0465 C   0  0  0  0  0  0  0  0  0  0  0  0
    5.9494   15.1720   25.8802 C   0  0  0  0  0  0  0  0  0  0  0  0
    6.2021   14.1715   27.0233 C   0  0  0  0  0  0  0  0  0  0  0  0
    5.5818   12.8641   26.7531 N   0  0  0  0  0  0  0  0  0  0  0  0
    6.5628   11.7987   26.5400 C   0  0  0  0  0  0  0  0  0  0  0  0
    7.5209   11.9308   25.3703 C   0  0  0  0  0  0  0  0  0  0  0  0
    8.1466   10.8033   24.9081 C   0  0  0  0  0  0  0  0  0  0  0  0
    9.0157   10.9808   23.8594 C   0  0  0  0  0  0  0  0  0  0  0  0
    9.6180    9.7796   23.2240 C   0  0  0  0  0  0  0  0  0  0  0  0
    9.3103   12.1873   23.3409 N   0  0  0  0  0  0  0  0  0  0  0  0
    8.7078   13.2516   23.8745 C   0  0  0  0  0  0  0  0  0  0  0  0
    9.0911   14.5357   23.5204 N   0  0  0  0  0  0  0  0  0  0  0  0
   10.4925   14.8027   23.8181 C   0  0  0  0  0  0  0  0  0  0  0  0
   11.4356   14.4810   22.6692 C   0  0  0  0  0  0  0  0  0  0  0  0
   10.9749   15.1536   21.3883 C   0  0  0  0  0  0  0  0  0  0  0  0
    9.5512   14.7255   21.0703 C   0  0  0  0  0  0  0  0  0  0  0  0
    8.5915   14.9993   22.2232 C   0  0  0  0  0  0  0  0  0  0  0  0
    7.8299   13.1474   24.8777 N   0  0  0  0  0  0  0  0  0  0  0  0
  1  2  1  0
  2  3  2  0
  3  4  2  0
  4  5  1  0
  5  6  1  0
  6  7  1  0
  7  8  1  0
  8  9  1  0
  9 10  2  0
 10 11  1  0
 11 12  1  0
 11 13  2  0
 13 14  1  0
 14 15  1  0
 15 16  1  0
 16 17  1  0
 17 18  1  0
 18 19  1  0
 19 20  1  0
 14 21  2  0
 21  9  1  0
 20 15  1  0
M  END
>  <tags>  (296) 
{'openbind_a71ev2a_c1_knitwork_pure', 'fragmenstein_placed'}

>  <distance_score>  (296) 
0.849674

>  <ref_mols>  (296) 
A4706a,A1068a

>  <smiles>  (296) 
CC=C=CCCNCc1cc(C)nc(N2CCCCC2)n1

>  <HIPPO Pose ID>  (296) 
264009

>  <inchikey>  (296) 
STCJHBJZJQTPAK-UHFFFAOYSA-N

>  <ref_pdb>  (296) 
A1779a

>  <alias>  (296) 
C45912-P439

>  <energy_score>  (296) 
-16.950538

>  <HIPPO Compound ID>  (296) 
50765

$$$$
C1794-P481
     RDKit          3D

 12 13  0  0  0  0  0  0  0  0999 V2000
    8.1865   11.7011   25.2959 C   0  0  0  0  0  0  0  0  0  0  0  0
    8.8350   10.7181   24.5752 C   0  0  0  0  0  0  0  0  0  0  0  0
    9.6787   10.9861   23.5632 N   0  0  0  0  0  0  0  0  0  0  0  0
    9.8788   12.2910   23.2498 C   0  0  0  0  0  0  0  0  0  0  0  0
    9.2886   13.3634   23.9027 C   0  0  0  0  0  0  0  0  0  0  0  0
    9.5143   14.8129   23.5034 C   0  0  2  0  0  0  0  0  0  0  0  0
    9.1100   15.1946   22.0624 C   0  0  0  0  0  0  0  0  0  0  0  0
   10.2147   15.0354   21.0232 C   0  0  0  0  0  0  0  0  0  0  0  0
   11.5394   15.5891   21.5219 C   0  0  0  0  0  0  0  0  0  0  0  0
   11.8814   15.0229   22.8926 C   0  0  0  0  0  0  0  0  0  0  0  0
   10.8452   15.3264   23.8881 N   0  0  0  0  0  0  0  0  0  0  0  0
    8.4290   13.0344   24.9630 C   0  0  0  0  0  0  0  0  0  0  0  0
  1  2  2  0
  2  3  1  0
  3  4  2  0
  4  5  1  0
  6  5  1  6
  6  7  1  0
  7  8  1  0
  8  9  1  0
  9 10  1  0
 10 11  1  0
  5 12  2  0
 12  1  1  0
 11  6  1  0
M  END
>  <tags>  (297) 
{'openbind_a71ev2a_c1_knitwork_pure', 'fragmenstein_placed'}

>  <distance_score>  (297) 
0.886867

>  <ref_mols>  (297) 
A4836a,A2629a

>  <smiles>  (297) 
c1cncc([C@@H]2CCCCN2)c1

>  <HIPPO Pose ID>  (297) 
264622

>  <inchikey>  (297) 
FJYQDPPMQZVULE-UHFFFAOYSA-N

>  <ref_pdb>  (297) 
A1779a

>  <alias>  (297) 
C1794-P481

>  <energy_score>  (297) 
-20.999596

>  <HIPPO Compound ID>  (297) 
45621

$$$$
C715-P481
     RDKit          3D

 12 13  0  0  0  0  0  0  0  0999 V2000
    9.5184   10.8581   23.7012 C   0  0  0  0  0  0  0  0  0  0  0  0
    8.6823   10.6897   24.7876 C   0  0  0  0  0  0  0  0  0  0  0  0
    8.1529   11.7137   25.4857 N   0  0  0  0  0  0  0  0  0  0  0  0
    8.4763   12.9626   25.0544 C   0  0  0  0  0  0  0  0  0  0  0  0
    9.3022   13.2582   23.9655 C   0  0  0  0  0  0  0  0  0  0  0  0
    9.5746   14.5801   23.6168 N   0  0  0  0  0  0  0  0  0  0  0  0
   10.8931   15.0780   24.0191 C   0  0  0  0  0  0  0  0  0  0  0  0
   11.9296   14.9258   22.9117 C   0  0  0  0  0  0  0  0  0  0  0  0
   11.4561   15.5796   21.6210 C   0  0  0  0  0  0  0  0  0  0  0  0
   10.1081   15.0072   21.2015 C   0  0  0  0  0  0  0  0  0  0  0  0
    9.0715   15.0746   22.3218 C   0  0  0  0  0  0  0  0  0  0  0  0
    9.8265   12.1575   23.2945 C   0  0  0  0  0  0  0  0  0  0  0  0
  1  2  2  0
  2  3  1  0
  3  4  2  0
  4  5  1  0
  5  6  1  0
  6  7  1  0
  7  8  1  0
  8  9  1  0
  9 10  1  0
 10 11  1  0
  5 12  2  0
 12  1  1  0
 11  6  1  0
M  END
>  <tags>  (298) 
{'openbind_a71ev2a_c1_knitwork_pure', 'fragmenstein_placed'}

>  <distance_score>  (298) 
0.864186

>  <ref_mols>  (298) 
A4836a,A1105b,A2629a

>  <smiles>  (298) 
c1cncc(N2CCCCC2)c1

>  <HIPPO Pose ID>  (298) 
264623

>  <inchikey>  (298) 
BZZOYINXFCNSHF-UHFFFAOYSA-N

>  <ref_pdb>  (298) 
A1779a

>  <alias>  (298) 
C715-P481

>  <energy_score>  (298) 
-11.849462

>  <HIPPO Compound ID>  (298) 
73035

$$$$
C48047-P481
     RDKit          3D

 12 13  0  0  0  0  0  0  0  0999 V2000
    8.0832   11.6003   25.2442 C   0  0  0  0  0  0  0  0  0  0  0  0
    8.7908   10.6290   24.5636 C   0  0  0  0  0  0  0  0  0  0  0  0
    9.6812   10.9092   23.5947 N   0  0  0  0  0  0  0  0  0  0  0  0
    9.8670   12.2132   23.2811 C   0  0  0  0  0  0  0  0  0  0  0  0
    9.2261   13.2730   23.9060 C   0  0  0  0  0  0  0  0  0  0  0  0
    9.4967   14.7292   23.5613 C   0  0  0  0  0  0  0  0  0  0  0  0
   10.8841   15.1738   24.0509 C   0  0  0  0  0  0  0  0  0  0  0  0
   11.9883   14.9344   23.0287 C   0  0  0  0  0  0  0  0  0  0  0  0
   11.6674   15.5914   21.7740 N   0  0  0  0  0  0  0  0  0  0  0  0
   10.4672   15.0173   21.1733 C   0  0  0  0  0  0  0  0  0  0  0  0
    9.2493   15.1308   22.0920 C   0  0  0  0  0  0  0  0  0  0  0  0
    8.3151   12.9357   24.9174 C   0  0  0  0  0  0  0  0  0  0  0  0
  1  2  2  0
  2  3  1  0
  3  4  2  0
  4  5  1  0
  5  6  1  0
  6  7  1  0
  7  8  1  0
  8  9  1  0
  9 10  1  0
 10 11  1  0
  5 12  2  0
 12  1  1  0
 11  6  1  0
M  END
>  <tags>  (299) 
{'openbind_a71ev2a_c1_knitwork_pure', 'fragmenstein_placed'}

>  <distance_score>  (299) 
0.85291

>  <ref_mols>  (299) 
A4836a,A2629a

>  <smiles>  (299) 
c1cncc(C2CCNCC2)c1

>  <HIPPO Pose ID>  (299) 
264625

>  <inchikey>  (299) 
BRBPGGIIQVBPSB-UHFFFAOYSA-N

>  <ref_pdb>  (299) 
A1779a

>  <alias>  (299) 
C48047-P481

>  <energy_score>  (299) 
-20.675966

>  <HIPPO Compound ID>  (299) 
48047

$$$$
C736-P439
     RDKit          3D

 12 13  0  0  0  0  0  0  0  0999 V2000
    9.9062   15.7423   21.0882 C   0  0  0  0  0  0  0  0  0  0  0  0
   11.0765   15.3480   21.7118 C   0  0  0  0  0  0  0  0  0  0  0  0
   10.9915   14.6264   22.8971 C   0  0  0  0  0  0  0  0  0  0  0  0
    9.7402   14.2744   23.4177 C   0  0  0  0  0  0  0  0  0  0  0  0
    9.6735   13.4004   24.5255 N   0  0  0  0  0  0  0  0  0  0  0  0
   10.3084   12.1073   24.2277 C   0  0  0  0  0  0  0  0  0  0  0  0
    9.2767   11.0230   23.9472 C   0  0  0  0  0  0  0  0  0  0  0  0
    8.3232   10.8337   25.1198 C   0  0  0  0  0  0  0  0  0  0  0  0
    8.2410   12.0736   25.9984 C   0  0  0  0  0  0  0  0  0  0  0  0
    8.3414   13.3347   25.1489 C   0  0  0  0  0  0  0  0  0  0  0  0
    8.6015   14.7040   22.8390 N   0  0  0  0  0  0  0  0  0  0  0  0
    8.7093   15.4283   21.7032 C   0  0  0  0  0  0  0  0  0  0  0  0
  1  2  2  0
  2  3  1  0
  3  4  2  0
  4  5  1  0
  5  6  1  0
  6  7  1  0
  7  8  1  0
  8  9  1  0
  9 10  1  0
  4 11  1  0
 11 12  2  0
 12  1  1  0
 10  5  1  0
M  END
>  <tags>  (300) 
{'openbind_a71ev2a_c1_knitwork_pure', 'fragmenstein_placed'}

>  <distance_score>  (300) 
0.983377

>  <ref_mols>  (300) 
A4706a,A2629a

>  <smiles>  (300) 
c1ccc(N2CCCCC2)nc1

>  <HIPPO Pose ID>  (300) 
265680

>  <inchikey>  (300) 
GUNFXNUZCJVVCQ-UHFFFAOYSA-N

>  <ref_pdb>  (300) 
A1779a

>  <alias>  (300) 
C736-P439

>  <energy_score>  (300) 
-10.354918

>  <HIPPO Compound ID>  (300) 
45868

$$$$
C46475-P481
     RDKit          3D

 18 20  0  0  0  0  0  0  0  0999 V2000
   13.9791   -5.4207   17.2809 C   0  0  0  0  0  0  0  0  0  0  0  0
   14.8868   -4.4309   17.6592 C   0  0  0  0  0  0  0  0  0  0  0  0
   16.1422   -4.7919   18.1491 C   0  0  0  0  0  0  0  0  0  0  0  0
   17.1012   -3.7424   18.6642 C   0  0  0  0  0  0  0  0  0  0  0  0
   18.3114   -4.1450   19.4785 C   0  0  0  0  0  0  0  0  0  0  0  0
   18.4850   -3.6341   18.0764 C   0  0  0  0  0  0  0  0  0  0  0  0
   16.5111   -6.0967   18.2100 N   0  0  0  0  0  0  0  0  0  0  0  0
   15.6096   -7.0346   17.8567 C   0  0  0  0  0  0  0  0  0  0  0  0
   14.3248   -6.7635   17.4182 C   0  0  0  0  0  0  0  0  0  0  0  0
   13.3777   -7.9001   17.1712 C   0  0  0  0  0  0  0  0  0  0  0  0
   13.4224   -8.3879   15.7950 N   0  0  0  0  0  0  0  0  0  0  0  0
   12.5548   -9.5569   15.6341 C   0  0  0  0  0  0  0  0  0  0  0  0
   12.4943  -10.0196   14.1681 C   0  0  2  0  0  0  0  0  0  0  0  0
   11.9044   -8.9390   13.2481 C   0  0  0  0  0  0  0  0  0  0  0  0
   11.7112   -9.4781   11.8352 C   0  0  0  0  0  0  0  0  0  0  0  0
   10.9207  -10.7823   11.8338 C   0  0  0  0  0  0  0  0  0  0  0  0
   11.5476  -11.7865   12.6910 N   0  0  0  0  0  0  0  0  0  0  0  0
   11.6616  -11.3102   14.0707 C   0  0  0  0  0  0  0  0  0  0  0  0
  1  2  2  0
  2  3  1  0
  3  4  1  0
  4  5  1  0
  5  6  1  0
  3  7  2  0
  7  8  1  0
  8  9  2  0
  9 10  1  0
 10 11  1  0
 11 12  1  0
 13 12  1  1
 13 14  1  0
 14 15  1  0
 15 16  1  0
 16 17  1  0
 17 18  1  0
  9  1  1  0
 18 13  1  0
  6  4  1  0
M  END
>  <tags>  (301) 
{'openbind_a71ev2a_c1_knitwork_pure', 'fragmenstein_placed'}

>  <distance_score>  (301) 
0.975231

>  <ref_mols>  (301) 
A4836a,A1105b

>  <smiles>  (301) 
c1cc(C2CC2)ncc1CNC[C@@H]1CCCNC1

>  <HIPPO Pose ID>  (301) 
265713

>  <inchikey>  (301) 
IYSNRKWEWIPQJO-UHFFFAOYSA-N

>  <ref_pdb>  (301) 
A1779a

>  <alias>  (301) 
C46475-P481

>  <energy_score>  (301) 
-35.854746

>  <HIPPO Compound ID>  (301) 
45401

$$$$
C47047-P322
     RDKit          3D

 16 18  0  0  0  0  0  0  0  0999 V2000
   24.6439   22.1234   18.1838 C   0  0  0  0  0  0  0  0  0  0  0  0
   24.3333   21.5189   19.3092 N   0  0  0  0  0  0  0  0  0  0  0  0
   25.4996   21.2089   19.9918 C   0  0  0  0  0  0  0  0  0  0  0  0
   25.5765   20.5208   21.2185 C   0  0  0  0  0  0  0  0  0  0  0  0
   26.8221   20.2915   21.8116 C   0  0  0  0  0  0  0  0  0  0  0  0
   27.9983   20.7429   21.2059 C   0  0  0  0  0  0  0  0  0  0  0  0
   29.3312   20.5404   21.8873 C   0  0  0  0  0  0  0  0  0  0  0  0
   29.5394   21.4522   23.1114 C   0  0  2  0  0  0  0  0  0  0  0  0
   29.5918   22.9421   22.7218 C   0  0  0  0  0  0  0  0  0  0  0  0
   30.3991   23.7802   23.7145 C   0  0  0  0  0  0  0  0  0  0  0  0
   30.4147   23.1505   25.1013 C   0  0  0  0  0  0  0  0  0  0  0  0
   30.9986   21.8085   25.1179 N   0  0  0  0  0  0  0  0  0  0  0  0
   30.8201   21.0643   23.8638 C   0  0  0  0  0  0  0  0  0  0  0  0
   27.9402   21.4088   19.9713 C   0  0  0  0  0  0  0  0  0  0  0  0
   26.6839   21.6327   19.3856 C   0  0  0  0  0  0  0  0  0  0  0  0
   26.3051   22.4246   17.9040 S   0  0  0  0  0  0  0  0  0  0  0  0
  1  2  2  0
  2  3  1  0
  3  4  2  0
  4  5  1  0
  5  6  2  0
  6  7  1  0
  8  7  1  6
  8  9  1  0
  9 10  1  0
 10 11  1  0
 11 12  1  0
 12 13  1  0
  6 14  1  0
 14 15  2  0
 15 16  1  0
 16  1  1  0
 15  3  1  0
 13  8  1  0
M  END
>  <tags>  (302) 
{'openbind_a71ev2a_c1_knitwork_pure', 'fragmenstein_placed'}

>  <distance_score>  (302) 
0.459186

>  <ref_mols>  (302) 
A0514b,A4351a

>  <smiles>  (302) 
c1nc2ccc(C[C@@H]3CCCNC3)cc2s1

>  <HIPPO Pose ID>  (302) 
267310

>  <inchikey>  (302) 
QATXJWMNVCBKJS-UHFFFAOYSA-N

>  <ref_pdb>  (302) 
A1779a

>  <alias>  (302) 
C47047-P322

>  <energy_score>  (302) 
-64.461758

>  <HIPPO Compound ID>  (302) 
53933

$$$$
C47049-P322
     RDKit          3D

 18 20  0  0  0  0  0  0  0  0999 V2000
   22.4203   22.9726   17.6854 C   0  0  0  0  0  0  0  0  0  0  0  0
   23.8620   22.9088   17.2043 C   0  0  0  0  0  0  0  0  0  0  0  0
   24.7740   22.2743   18.2077 C   0  0  0  0  0  0  0  0  0  0  0  0
   24.3797   21.6162   19.2770 N   0  0  0  0  0  0  0  0  0  0  0  0
   25.4821   21.2120   20.0098 C   0  0  0  0  0  0  0  0  0  0  0  0
   25.4419   20.4929   21.2191 C   0  0  0  0  0  0  0  0  0  0  0  0
   26.6305   20.2026   21.8927 C   0  0  0  0  0  0  0  0  0  0  0  0
   27.8641   20.6147   21.3799 C   0  0  0  0  0  0  0  0  0  0  0  0
   29.1241   20.3698   22.1773 C   0  0  0  0  0  0  0  0  0  0  0  0
   29.3117   21.3925   23.3217 C   0  0  2  0  0  0  0  0  0  0  0  0
   29.8539   22.7453   22.8275 C   0  0  0  0  0  0  0  0  0  0  0  0
   31.3369   22.6695   22.4670 C   0  0  0  0  0  0  0  0  0  0  0  0
   32.1542   22.0551   23.6017 C   0  0  0  0  0  0  0  0  0  0  0  0
   31.6401   20.7496   24.0171 N   0  0  0  0  0  0  0  0  0  0  0  0
   30.2381   20.8444   24.4224 C   0  0  0  0  0  0  0  0  0  0  0  0
   27.9245   21.2879   20.1498 C   0  0  0  0  0  0  0  0  0  0  0  0
   26.7212   21.5839   19.4889 C   0  0  0  0  0  0  0  0  0  0  0  0
   26.4748   22.4252   18.0096 S   0  0  0  0  0  0  0  0  0  0  0  0
  1  2  1  0
  2  3  1  0
  3  4  2  0
  4  5  1  0
  5  6  2  0
  6  7  1  0
  7  8  2  0
  8  9  1  0
 10  9  1  6
 10 11  1  0
 11 12  1  0
 12 13  1  0
 13 14  1  0
 14 15  1  0
  8 16  1  0
 16 17  2  0
 17 18  1  0
 18  3  1  0
 17  5  1  0
 15 10  1  0
M  END
>  <tags>  (303) 
{'openbind_a71ev2a_c1_knitwork_pure', 'fragmenstein_placed'}

>  <distance_score>  (303) 
0.505697

>  <ref_mols>  (303) 
A0514b,A4351a

>  <smiles>  (303) 
CCc1nc2ccc(C[C@@H]3CCCNC3)cc2s1

>  <HIPPO Pose ID>  (303) 
267311

>  <inchikey>  (303) 
GDWHZKUVFYWLOX-UHFFFAOYSA-N

>  <ref_pdb>  (303) 
A1779a

>  <alias>  (303) 
C47049-P322

>  <energy_score>  (303) 
-78.039505

>  <HIPPO Compound ID>  (303) 
71025

$$$$
C47050-P322
     RDKit          3D

 19 21  0  0  0  0  0  0  0  0999 V2000
   22.2515   22.5803   17.8771 C   0  0  0  0  0  0  0  0  0  0  0  0
   23.6750   22.8759   17.3905 C   0  0  0  0  0  0  0  0  0  0  0  0
   23.8564   24.3964   17.3073 C   0  0  0  0  0  0  0  0  0  0  0  0
   24.6958   22.2447   18.3070 C   0  0  0  0  0  0  0  0  0  0  0  0
   24.3976   21.5937   19.4134 N   0  0  0  0  0  0  0  0  0  0  0  0
   25.5569   21.2094   20.0623 C   0  0  0  0  0  0  0  0  0  0  0  0
   25.6207   20.5183   21.2871 C   0  0  0  0  0  0  0  0  0  0  0  0
   26.8620   20.2715   21.8799 C   0  0  0  0  0  0  0  0  0  0  0  0
   28.0440   20.6992   21.2689 C   0  0  0  0  0  0  0  0  0  0  0  0
   29.3688   20.5279   21.9723 C   0  0  0  0  0  0  0  0  0  0  0  0
   29.5372   21.4295   23.2129 C   0  0  1  0  0  0  0  0  0  0  0  0
   30.8370   21.0685   23.9501 C   0  0  0  0  0  0  0  0  0  0  0  0
   31.0799   22.0125   25.1233 C   0  0  0  0  0  0  0  0  0  0  0  0
   31.0266   23.4698   24.6757 C   0  0  0  0  0  0  0  0  0  0  0  0
   29.7559   23.7729   24.0216 N   0  0  0  0  0  0  0  0  0  0  0  0
   29.5397   22.9239   22.8446 C   0  0  0  0  0  0  0  0  0  0  0  0
   27.9990   21.3271   20.0139 C   0  0  0  0  0  0  0  0  0  0  0  0
   26.7454   21.5805   19.4366 C   0  0  0  0  0  0  0  0  0  0  0  0
   26.3759   22.3618   17.9517 S   0  0  0  0  0  0  0  0  0  0  0  0
  1  2  1  0
  2  3  1  0
  2  4  1  0
  4  5  2  0
  5  6  1  0
  6  7  2  0
  7  8  1  0
  8  9  2  0
  9 10  1  0
 11 10  1  6
 11 12  1  0
 12 13  1  0
 13 14  1  0
 14 15  1  0
 15 16  1  0
  9 17  1  0
 17 18  2  0
 18 19  1  0
 19  4  1  0
 18  6  1  0
 16 11  1  0
M  END
>  <tags>  (304) 
{'openbind_a71ev2a_c1_knitwork_pure', 'fragmenstein_placed'}

>  <distance_score>  (304) 
0.502319

>  <ref_mols>  (304) 
A0514b,A4351a

>  <smiles>  (304) 
CC(C)c1nc2ccc(C[C@H]3CCCNC3)cc2s1

>  <HIPPO Pose ID>  (304) 
267312

>  <inchikey>  (304) 
UUXRWAXHJKIKLF-UHFFFAOYSA-N

>  <ref_pdb>  (304) 
A1779a

>  <alias>  (304) 
C47050-P322

>  <energy_score>  (304) 
-96.445075

>  <HIPPO Compound ID>  (304) 
47050

$$$$
C47054-P322
     RDKit          3D

 17 19  0  0  0  0  0  0  0  0999 V2000
   23.7141   22.7120   17.2000 C   0  0  0  0  0  0  0  0  0  0  0  0
   24.6868   22.2002   18.2012 C   0  0  0  0  0  0  0  0  0  0  0  0
   24.3505   21.5432   19.2905 N   0  0  0  0  0  0  0  0  0  0  0  0
   25.4929   21.2030   19.9977 C   0  0  0  0  0  0  0  0  0  0  0  0
   25.5304   20.4684   21.1992 C   0  0  0  0  0  0  0  0  0  0  0  0
   26.7544   20.2291   21.8323 C   0  0  0  0  0  0  0  0  0  0  0  0
   27.9454   20.7223   21.2936 C   0  0  0  0  0  0  0  0  0  0  0  0
   29.2517   20.5427   22.0297 C   0  0  0  0  0  0  0  0  0  0  0  0
   29.7035   21.8033   22.7965 C   0  0  2  0  0  0  0  0  0  0  0  0
   31.1341   21.6096   23.3296 C   0  0  0  0  0  0  0  0  0  0  0  0
   31.4858   22.5770   24.4599 C   0  0  0  0  0  0  0  0  0  0  0  0
   30.5408   23.7695   24.5065 C   0  0  0  0  0  0  0  0  0  0  0  0
   29.1535   23.3584   24.7117 N   0  0  0  0  0  0  0  0  0  0  0  0
   28.7605   22.1629   23.9558 C   0  0  0  0  0  0  0  0  0  0  0  0
   27.9282   21.4257   20.0783 C   0  0  0  0  0  0  0  0  0  0  0  0
   26.6939   21.6546   19.4508 C   0  0  0  0  0  0  0  0  0  0  0  0
   26.3637   22.4903   17.9848 S   0  0  0  0  0  0  0  0  0  0  0  0
  1  2  1  0
  2  3  2  0
  3  4  1  0
  4  5  2  0
  5  6  1  0
  6  7  2  0
  7  8  1  0
  9  8  1  1
  9 10  1  0
 10 11  1  0
 11 12  1  0
 12 13  1  0
 13 14  1  0
  7 15  1  0
 15 16  2  0
 16 17  1  0
 17  2  1  0
 16  4  1  0
 14  9  1  0
M  END
>  <tags>  (305) 
{'openbind_a71ev2a_c1_knitwork_pure', 'fragmenstein_placed'}

>  <distance_score>  (305) 
0.458313

>  <ref_mols>  (305) 
A0514b,A4351a

>  <smiles>  (305) 
Cc1nc2ccc(C[C@@H]3CCCNC3)cc2s1

>  <HIPPO Pose ID>  (305) 
267314

>  <inchikey>  (305) 
WCIIHXGCHJLLNO-UHFFFAOYSA-N

>  <ref_pdb>  (305) 
A1779a

>  <alias>  (305) 
C47054-P322

>  <energy_score>  (305) 
-82.932193

>  <HIPPO Compound ID>  (305) 
53958

$$$$
C47072-P322
     RDKit          3D

 21 23  0  0  0  0  0  0  0  0999 V2000
   30.2008   22.4263   20.4319 O   0  0  0  0  0  0  0  0  0  0  0  0
   29.5273   21.9148   19.6318 C   0  0  0  0  0  0  0  0  0  0  0  0
   29.7598   21.6912   18.1310 N   0  0  0  0  0  0  0  0  0  0  0  0
   30.9224   21.9671   17.3044 C   0  0  2  0  0  0  0  0  0  0  0  0
   30.6491   23.1258   16.3477 C   0  0  0  0  0  0  0  0  0  0  0  0
   29.7257   22.7338   15.1890 C   0  0  0  0  0  0  0  0  0  0  0  0
   29.6379   21.2260   14.9527 C   0  0  0  0  0  0  0  0  0  0  0  0
   30.9214   20.5793   15.1647 N   0  0  0  0  0  0  0  0  0  0  0  0
   31.4097   20.7136   16.5431 C   0  0  0  0  0  0  0  0  0  0  0  0
   28.2296   21.3487   20.0856 C   0  0  0  0  0  0  0  0  0  0  0  0
   28.2329   20.5651   21.2533 C   0  0  0  0  0  0  0  0  0  0  0  0
   27.0504   20.0651   21.7830 C   0  0  0  0  0  0  0  0  0  0  0  0
   25.8331   20.3520   21.1635 C   0  0  0  0  0  0  0  0  0  0  0  0
   25.7993   21.1322   19.9871 C   0  0  0  0  0  0  0  0  0  0  0  0
   24.6475   21.4710   19.2942 N   0  0  0  0  0  0  0  0  0  0  0  0
   24.9531   22.1897   18.2301 C   0  0  0  0  0  0  0  0  0  0  0  0
   23.9604   22.7155   17.2372 C   0  0  0  0  0  0  0  0  0  0  0  0
   23.4376   23.9062   17.6534 F   0  0  0  0  0  0  0  0  0  0  0  0
   24.5084   22.9608   16.0138 F   0  0  0  0  0  0  0  0  0  0  0  0
   26.6226   22.5442   18.0469 S   0  0  0  0  0  0  0  0  0  0  0  0
   26.9989   21.6208   19.4547 C   0  0  0  0  0  0  0  0  0  0  0  0
  1  2  2  0
  2  3  1  0
  4  3  1  6
  4  5  1  0
  5  6  1  0
  6  7  1  0
  7  8  1  0
  8  9  1  0
  2 10  1  0
 10 11  2  0
 11 12  1  0
 12 13  2  0
 13 14  1  0
 14 15  1  0
 15 16  2  0
 16 17  1  0
 17 18  1  0
 17 19  1  0
 16 20  1  0
 20 21  1  0
  9  4  1  0
 21 10  1  0
 21 14  2  0
M  END
>  <tags>  (306) 
{'openbind_a71ev2a_c1_knitwork_pure', 'fragmenstein_placed'}

>  <distance_score>  (306) 
0.368377

>  <ref_mols>  (306) 
A0514b,A4351a

>  <smiles>  (306) 
O=C(N[C@@H]1CCCNC1)c1cccc2nc(C(F)F)sc12

>  <HIPPO Pose ID>  (306) 
267320

>  <inchikey>  (306) 
RNMKDQJFKQUPLR-UHFFFAOYSA-N

>  <ref_pdb>  (306) 
A1779a

>  <alias>  (306) 
C47072-P322

>  <energy_score>  (306) 
-57.615326

>  <HIPPO Compound ID>  (306) 
56036

$$$$
C51714-P354
     RDKit          3D

 22 24  0  0  0  0  0  0  0  0999 V2000
    5.7951   14.1305   30.6279 C   0  0  0  0  0  0  0  0  0  0  0  0
    4.8362   13.3133   29.7663 C   0  0  2  0  0  0  0  0  0  0  0  0
    5.5061   12.8886   28.5500 N   0  0  0  0  0  0  0  0  0  0  0  0
    5.1855   11.7348   27.5824 C   0  0  0  0  0  0  0  0  0  0  0  0
    4.2899   10.9906   27.5656 O   0  0  0  0  0  0  0  0  0  0  0  0
    6.2193   11.6135   26.5114 C   0  0  0  0  0  0  0  0  0  0  0  0
    6.7704   12.7310   25.8831 C   0  0  0  0  0  0  0  0  0  0  0  0
    7.7320   12.5531   24.8852 C   0  0  0  0  0  0  0  0  0  0  0  0
    8.5083   14.0924   24.1076 Br  0  0  0  0  0  0  0  0  0  0  0  0
    8.1387   11.2753   24.4928 C   0  0  0  0  0  0  0  0  0  0  0  0
    7.5863   10.1679   25.1243 C   0  0  0  0  0  0  0  0  0  0  0  0
    6.6189   10.3318   26.1186 C   0  0  0  0  0  0  0  0  0  0  0  0
    7.9556    8.8867   24.8462 O   0  0  0  0  0  0  0  0  0  0  0  0
    8.7393    8.7420   23.6616 C   0  0  0  0  0  0  0  0  0  0  0  0
    9.6544    9.8970   23.3711 C   0  0  0  0  0  0  0  0  0  0  0  0
    9.0336   11.1703   23.4672 O   0  0  0  0  0  0  0  0  0  0  0  0
    3.4931   14.0082   29.4311 C   0  0  1  0  0  0  0  0  0  0  0  0
    2.6036   14.1738   30.6751 C   0  0  0  0  0  0  0  0  0  0  0  0
    1.2923   14.8667   30.3089 C   0  0  0  0  0  0  0  0  0  0  0  0
    1.5487   16.1763   29.5666 C   0  0  0  0  0  0  0  0  0  0  0  0
    2.3803   15.9740   28.3781 N   0  0  0  0  0  0  0  0  0  0  0  0
    3.6681   15.3665   28.7295 C   0  0  0  0  0  0  0  0  0  0  0  0
  2  1  1  6
  2  3  1  0
  3  4  1  0
  4  5  2  0
  4  6  1  0
  6  7  2  0
  7  8  1  0
  8  9  1  0
  8 10  2  0
 10 11  1  0
 11 12  2  0
 11 13  1  0
 13 14  1  0
 14 15  1  0
 15 16  1  0
  2 17  1  0
 17 18  1  1
 18 19  1  0
 19 20  1  0
 20 21  1  0
 21 22  1  0
 12  6  1  0
 22 17  1  0
 16 10  1  0
M  END
>  <tags>  (307) 
{'openbind_a71ev2a_c1_knitwork_pure', 'fragmenstein_placed'}

>  <distance_score>  (307) 
0.609678

>  <ref_mols>  (307) 
A3181b,A4415a

>  <smiles>  (307) 
C[C@H](NC(=O)c1cc(Br)c2c(c1)OCCO2)[C@H]1CCCNC1

>  <HIPPO Pose ID>  (307) 
267388

>  <inchikey>  (307) 
QYLPLGFXGKSQBO-UHFFFAOYSA-N

>  <ref_pdb>  (307) 
A1779a

>  <alias>  (307) 
C51714-P354

>  <energy_score>  (307) 
-15.799813

>  <HIPPO Compound ID>  (307) 
46686

$$$$
C45903-P405
     RDKit          3D

 21 23  0  0  0  0  0  0  0  0999 V2000
   22.3753   19.1971   24.2562 O   0  0  0  0  0  0  0  0  0  0  0  0
   23.4848   18.4593   23.7345 C   0  0  1  0  0  0  0  0  0  0  0  0
   24.7253   19.3518   23.8622 C   0  0  0  0  0  0  0  0  0  0  0  0
   25.9002   18.9357   22.9729 C   0  0  0  0  0  0  0  0  0  0  0  0
   25.7542   19.2990   21.5652 N   0  0  0  0  0  0  0  0  0  0  0  0
   26.2827   20.5628   21.2361 C   0  0  0  0  0  0  0  0  0  0  0  0
   25.5627   21.6936   21.5429 C   0  0  0  0  0  0  0  0  0  0  0  0
   26.1865   22.8857   21.3104 C   0  0  0  0  0  0  0  0  0  0  0  0
   27.4080   22.9864   20.7747 N   0  0  0  0  0  0  0  0  0  0  0  0
   28.0344   21.8512   20.4173 C   0  0  0  0  0  0  0  0  0  0  0  0
   29.2411   21.9796   19.7091 N   0  0  0  0  0  0  0  0  0  0  0  0
   30.0727   20.7848   19.7033 C   0  0  0  0  0  0  0  0  0  0  0  0
   31.2123   20.9273   18.6959 C   0  0  0  0  0  0  0  0  0  0  0  0
   32.0193   22.1925   18.9514 C   0  0  0  0  0  0  0  0  0  0  0  0
   31.1004   23.4070   18.9653 C   0  0  0  0  0  0  0  0  0  0  0  0
   29.9457   23.2385   19.9555 C   0  0  0  0  0  0  0  0  0  0  0  0
   27.4992   20.6358   20.6608 N   0  0  0  0  0  0  0  0  0  0  0  0
   23.6582   17.1643   24.5275 C   0  0  0  0  0  0  0  0  0  0  0  0
   23.6705   17.2259   26.0832 C   0  0  0  0  0  0  0  0  0  0  0  0
   22.9787   15.8481   26.0704 C   0  0  0  0  0  0  0  0  0  0  0  0
   22.4395   16.2099   24.6718 C   0  0  0  0  0  0  0  0  0  0  0  0
  2  1  1  1
  2  3  1  0
  3  4  1  0
  4  5  1  0
  5  6  1  0
  6  7  2  0
  7  8  1  0
  8  9  2  0
  9 10  1  0
 10 11  1  0
 11 12  1  0
 12 13  1  0
 13 14  1  0
 14 15  1  0
 15 16  1  0
 10 17  2  0
  2 18  1  0
 18 19  1  0
 19 20  1  0
 20 21  1  0
 17  6  1  0
 21 18  1  0
 16 11  1  0
M  END
>  <tags>  (308) 
{'openbind_a71ev2a_c1_knitwork_pure', 'fragmenstein_placed'}

>  <distance_score>  (308) 
0.611771

>  <ref_mols>  (308) 
A1146a,A4570a

>  <smiles>  (308) 
O[C@@H](CCNc1ccnc(N2CCCCC2)n1)C1CCC1

>  <HIPPO Pose ID>  (308) 
267608

>  <inchikey>  (308) 
ADNXPKLKFSZSFL-UHFFFAOYSA-N

>  <ref_pdb>  (308) 
A1779a

>  <alias>  (308) 
C45903-P405

>  <energy_score>  (308) 
-34.013784

>  <HIPPO Compound ID>  (308) 
48529

$$$$
C27143-P405
     RDKit          3D

 22 24  0  0  0  0  0  0  0  0999 V2000
   26.5600   20.3780   21.1402 C   0  0  0  0  0  0  0  0  0  0  0  0
   25.9392   21.3667   21.8518 C   0  0  0  0  0  0  0  0  0  0  0  0
   26.5466   22.5998   21.8198 C   0  0  0  0  0  0  0  0  0  0  0  0
   25.9222   23.6596   22.5133 N   0  0  0  0  0  0  0  0  0  0  0  0
   26.6544   24.9236   22.4552 C   0  0  0  0  0  0  0  0  0  0  0  0
   25.8453   26.0221   23.1378 C   0  0  0  0  0  0  0  0  0  0  0  0
   24.5878   26.3816   22.3545 C   0  0  0  0  0  0  0  0  0  0  0  0
   23.9193   27.4343   23.0540 O   0  0  0  0  0  0  0  0  0  0  0  0
   22.7713   27.9124   22.3654 C   0  0  1  0  0  0  0  0  0  0  0  0
   21.6005   26.9552   22.3873 C   0  0  0  0  0  0  0  0  0  0  0  0
   20.4309   27.8857   22.1572 C   0  0  0  0  0  0  0  0  0  0  0  0
   20.7723   29.1445   22.7545 O   0  0  0  0  0  0  0  0  0  0  0  0
   22.1725   29.1186   23.0752 C   0  0  0  0  0  0  0  0  0  0  0  0
   27.6696   22.8147   21.1166 N   0  0  0  0  0  0  0  0  0  0  0  0
   28.2255   21.7942   20.4364 C   0  0  0  0  0  0  0  0  0  0  0  0
   29.3811   22.0296   19.6738 N   0  0  0  0  0  0  0  0  0  0  0  0
   30.2354   20.8516   19.5339 C   0  0  0  0  0  0  0  0  0  0  0  0
   31.3345   21.1069   18.5058 C   0  0  0  0  0  0  0  0  0  0  0  0
   32.1257   22.3615   18.8485 C   0  0  0  0  0  0  0  0  0  0  0  0
   31.1865   23.5515   19.0051 C   0  0  0  0  0  0  0  0  0  0  0  0
   30.0736   23.2706   20.0167 C   0  0  0  0  0  0  0  0  0  0  0  0
   27.6831   20.5670   20.4303 N   0  0  0  0  0  0  0  0  0  0  0  0
  1  2  2  0
  2  3  1  0
  3  4  1  0
  4  5  1  0
  5  6  1  0
  6  7  1  0
  7  8  1  0
  9  8  1  1
  9 10  1  0
 10 11  1  0
 11 12  1  0
 12 13  1  0
  3 14  2  0
 14 15  1  0
 15 16  1  0
 16 17  1  0
 17 18  1  0
 18 19  1  0
 19 20  1  0
 20 21  1  0
 15 22  2  0
 22  1  1  0
 13  9  1  0
 21 16  1  0
M  END
>  <tags>  (309) 
{'openbind_a71ev2a_c1_knitwork_pure', 'fragmenstein_placed'}

>  <distance_score>  (309) 
0.474083

>  <ref_mols>  (309) 
A1146a,A4570a

>  <smiles>  (309) 
c1cc(NCCCO[C@H]2CCOC2)nc(N2CCCCC2)n1

>  <HIPPO Pose ID>  (309) 
267612

>  <inchikey>  (309) 
USNXQARUIFIATO-UHFFFAOYSA-N

>  <ref_pdb>  (309) 
A1779a

>  <alias>  (309) 
C27143-P405

>  <energy_score>  (309) 
-90.892947

>  <HIPPO Compound ID>  (309) 
63712

$$$$
C70623-P205
     RDKit          3D

 23 25  0  0  0  0  0  0  0  0999 V2000
    1.7843   13.7232   22.7644 C   0  0  0  0  0  0  0  0  0  0  0  0
    2.8022   14.7284   22.2334 C   0  0  1  0  0  0  0  0  0  0  0  0
    3.9467   14.8421   23.1165 N   0  0  0  0  0  0  0  0  0  0  0  0
    5.4144   14.3680   22.9276 C   0  0  0  0  0  0  0  0  0  0  0  0
    5.9262   13.8958   22.0237 O   0  0  0  0  0  0  0  0  0  0  0  0
    5.9824   14.7278   24.3297 N   0  0  0  0  0  0  0  0  0  0  0  0
    7.2836   14.4773   24.9038 C   0  0  0  0  0  0  0  0  0  0  0  0
    7.8155   13.1007   24.5994 C   0  0  0  0  0  0  0  0  0  0  0  0
    7.1220   11.9842   25.1183 C   0  0  0  0  0  0  0  0  0  0  0  0
    7.5413   10.6852   24.8500 C   0  0  0  0  0  0  0  0  0  0  0  0
    8.6452   10.4879   24.0361 C   0  0  0  0  0  0  0  0  0  0  0  0
    9.3464   11.5918   23.5352 C   0  0  0  0  0  0  0  0  0  0  0  0
    8.9763   12.9141   23.8214 C   0  0  0  0  0  0  0  0  0  0  0  0
    9.7094   14.0108   23.3750 N   0  0  0  0  0  0  0  0  0  0  0  0
    9.2034   14.7107   22.1720 C   0  0  0  0  0  0  0  0  0  0  0  0
   10.4471   15.3219   21.5142 C   0  0  0  0  0  0  0  0  0  0  0  0
   11.5060   15.2656   22.6016 C   0  0  0  0  0  0  0  0  0  0  0  0
   11.1696   13.9559   23.3001 C   0  0  0  0  0  0  0  0  0  0  0  0
    3.1318   14.4792   20.7985 C   0  0  0  0  0  0  0  0  0  0  0  0
    2.9987   15.3227   19.7903 N   0  0  0  0  0  0  0  0  0  0  0  0
    3.2358   14.5419   18.6858 C   0  0  0  0  0  0  0  0  0  0  0  0
    3.5241   13.2584   19.0669 C   0  0  0  0  0  0  0  0  0  0  0  0
    3.4487   13.1964   20.4231 O   0  0  0  0  0  0  0  0  0  0  0  0
  2  1  1  1
  2  3  1  0
  3  4  1  0
  4  5  2  0
  4  6  1  0
  6  7  1  0
  7  8  1  0
  8  9  2  0
  9 10  1  0
 10 11  2  0
 11 12  1  0
 12 13  2  0
 13 14  1  0
 14 15  1  0
 15 16  1  0
 16 17  1  0
 17 18  1  0
  2 19  1  0
 19 20  2  0
 20 21  1  0
 21 22  2  0
 22 23  1  0
 13  8  1  0
 18 14  1  0
 23 19  1  0
M  END
>  <tags>  (310) 
{'openbind_a71ev2a_c1_knitwork_pure', 'fragmenstein_placed'}

>  <distance_score>  (310) 
0.979663

>  <ref_mols>  (310) 
A3623a,A3694a

>  <smiles>  (310) 
C[C@@H](NC(=O)NCc1ccccc1N1CCCC1)c1ncco1

>  <HIPPO Pose ID>  (310) 
268211

>  <inchikey>  (310) 
XYEZCRBOLJWWSO-UHFFFAOYSA-N

>  <ref_pdb>  (310) 
A1779a

>  <alias>  (310) 
C70623-P205

>  <energy_score>  (310) 
-2.205602

>  <HIPPO Compound ID>  (310) 
70623

$$$$
C97238-P252
     RDKit          3D

 11 11  0  0  0  0  0  0  0  0999 V2000
    6.6141   15.9408   26.3754 O   0  0  0  0  0  0  0  0  0  0  0  0
    6.2554   15.6430   25.2388 C   0  0  0  0  0  0  0  0  0  0  0  0
    6.6168   14.3500   24.5486 C   0  0  0  0  0  0  0  0  0  0  0  0
    7.7632   13.6678   25.2727 C   0  0  0  0  0  0  0  0  0  0  0  0
    8.0096   12.2614   24.8446 C   0  0  0  0  0  0  0  0  0  0  0  0
    7.3190   11.0953   25.2466 C   0  0  0  0  0  0  0  0  0  0  0  0
    5.8595   11.1057   26.4345 Br  0  0  0  0  0  0  0  0  0  0  0  0
    7.8337    9.9688   24.7540 N   0  0  0  0  0  0  0  0  0  0  0  0
    8.8666   10.4060   24.0050 N   0  0  0  0  0  0  0  0  0  0  0  0
    9.0165   11.7626   24.0503 C   0  0  0  0  0  0  0  0  0  0  0  0
   10.3856   12.7761   23.2213 Br  0  0  0  0  0  0  0  0  0  0  0  0
  1  2  2  0
  2  3  1  0
  3  4  1  0
  4  5  1  0
  5  6  1  0
  6  7  1  0
  6  8  2  0
  8  9  1  0
  9 10  1  0
 10 11  1  0
 10  5  2  0
M  END
>  <tags>  (311) 
{'openbind_a71ev2a_c1_knitwork_pure', 'fragmenstein_placed'}

>  <distance_score>  (311) 
0.82627

>  <ref_mols>  (311) 
A0556a,A3975a

>  <smiles>  (311) 
O=CCCc1c(Br)n[nH]c1Br

>  <HIPPO Pose ID>  (311) 
268340

>  <inchikey>  (311) 
INEPPSBQJWJDAN-UHFFFAOYSA-N

>  <ref_pdb>  (311) 
A1779a

>  <alias>  (311) 
C97238-P252

>  <energy_score>  (311) 
-19.127108

>  <HIPPO Compound ID>  (311) 
97238

$$$$
C79798-P234
     RDKit          3D

 14 15  0  0  0  0  0  0  0  0999 V2000
    8.3273   14.9493   24.8872 C   0  0  0  0  0  0  0  0  0  0  0  0
    9.3857   13.9201   24.4760 C   0  0  1  0  0  0  0  0  0  0  0  0
    8.8425   12.5273   24.4713 C   0  0  0  0  0  0  0  0  0  0  0  0
    9.2369   11.3094   23.9601 C   0  0  0  0  0  0  0  0  0  0  0  0
    8.4013   10.3120   24.3974 N   0  0  0  0  0  0  0  0  0  0  0  0
    7.5168   10.9498   25.1249 C   0  0  0  0  0  0  0  0  0  0  0  0
    7.7248   12.2856   25.2352 O   0  0  0  0  0  0  0  0  0  0  0  0
   10.0786   14.2878   23.2394 N   0  0  0  0  0  0  0  0  0  0  0  0
    9.7326   13.8531   21.9117 C   0  0  0  0  0  0  0  0  0  0  0  0
   10.8409   14.4275   21.0384 C   0  0  0  0  0  0  0  0  0  0  0  0
   11.1401   15.7453   21.7095 C   0  0  1  0  0  0  0  0  0  0  0  0
    9.7726   16.9991   21.1201 Br  0  0  0  0  0  0  0  0  0  0  0  0
   10.9299   15.3867   23.1707 C   0  0  0  0  0  0  0  0  0  0  0  0
   11.4282   15.9166   24.1522 O   0  0  0  0  0  0  0  0  0  0  0  0
  2  1  1  6
  2  3  1  0
  3  4  2  0
  4  5  1  0
  5  6  2  0
  6  7  1  0
  2  8  1  0
  8  9  1  0
  9 10  1  0
 10 11  1  0
 11 12  1  6
 11 13  1  0
 13 14  2  0
  7  3  1  0
 13  8  1  0
M  END
>  <tags>  (312) 
{'openbind_a71ev2a_c1_knitwork_pure', 'fragmenstein_placed'}

>  <distance_score>  (312) 
0.926329

>  <ref_mols>  (312) 
A3623a,A3895a

>  <smiles>  (312) 
C[C@@H](c1cnco1)N1CC[C@@H](Br)C1=O

>  <HIPPO Pose ID>  (312) 
268723

>  <inchikey>  (312) 
UDUDCRVNWVAVQA-UHFFFAOYSA-N

>  <ref_pdb>  (312) 
A1779a

>  <alias>  (312) 
C79798-P234

>  <energy_score>  (312) 
-24.587773

>  <HIPPO Compound ID>  (312) 
46913

$$$$
C79880-P200
     RDKit          3D

 14 15  0  0  0  0  0  0  0  0999 V2000
    7.9218   14.7503   24.8361 C   0  0  0  0  0  0  0  0  0  0  0  0
    8.4125   13.9293   23.6487 C   0  0  2  0  0  0  0  0  0  0  0  0
    8.6825   12.5026   24.0146 C   0  0  0  0  0  0  0  0  0  0  0  0
    9.4650   11.6235   23.4156 N   0  0  0  0  0  0  0  0  0  0  0  0
    9.1898   10.4449   24.0579 C   0  0  0  0  0  0  0  0  0  0  0  0
    8.2458   10.6589   25.0282 C   0  0  0  0  0  0  0  0  0  0  0  0
    7.9115   11.9711   25.0148 O   0  0  0  0  0  0  0  0  0  0  0  0
    9.5497   14.4840   22.9048 N   0  0  0  0  0  0  0  0  0  0  0  0
    9.4893   14.6090   21.4715 C   0  0  0  0  0  0  0  0  0  0  0  0
   10.9365   14.5285   21.0278 C   0  0  1  0  0  0  0  0  0  0  0  0
   11.1361   15.1696   19.7863 O   0  0  0  0  0  0  0  0  0  0  0  0
   11.6873   15.1597   22.1787 C   0  0  0  0  0  0  0  0  0  0  0  0
   10.8375   14.7444   23.3613 C   0  0  0  0  0  0  0  0  0  0  0  0
   11.2304   14.7138   24.5193 O   0  0  0  0  0  0  0  0  0  0  0  0
  2  1  1  1
  2  3  1  0
  3  4  2  0
  4  5  1  0
  5  6  2  0
  6  7  1  0
  2  8  1  0
  8  9  1  0
  9 10  1  0
 10 11  1  6
 10 12  1  0
 12 13  1  0
 13 14  2  0
  7  3  1  0
 13  8  1  0
M  END
>  <tags>  (313) 
{'openbind_a71ev2a_c1_knitwork_pure', 'fragmenstein_placed'}

>  <distance_score>  (313) 
0.957077

>  <ref_mols>  (313) 
A3623a,A3895a

>  <smiles>  (313) 
C[C@H](c1ncco1)N1C[C@@H](O)CC1=O

>  <HIPPO Pose ID>  (313) 
268775

>  <inchikey>  (313) 
DRFSJOZQKRDYMQ-UHFFFAOYSA-N

>  <ref_pdb>  (313) 
A1779a

>  <alias>  (313) 
C79880-P200

>  <energy_score>  (313) 
-27.326482

>  <HIPPO Compound ID>  (313) 
50199

$$$$
C58995-P336
     RDKit          3D

 14 15  0  0  0  0  0  0  0  0999 V2000
    7.3527   15.7501   22.9216 C   0  0  0  0  0  0  0  0  0  0  0  0
    8.5184   15.4168   23.7292 N   0  0  0  0  0  0  0  0  0  0  0  0
    8.3100   14.5004   24.8360 C   0  0  0  0  0  0  0  0  0  0  0  0
    8.0779   13.0640   24.3139 C   0  0  0  0  0  0  0  0  0  0  0  0
    7.0940   12.3210   25.2249 C   0  0  0  0  0  0  0  0  0  0  0  0
    7.4661   10.8731   25.4692 C   0  0  0  0  0  0  0  0  0  0  0  0
    8.0566   10.2071   24.3388 N   0  0  0  0  0  0  0  0  0  0  0  0
    9.2132   10.8574   23.7540 C   0  0  0  0  0  0  0  0  0  0  0  0
    9.4014   12.3138   24.1493 C   0  0  0  0  0  0  0  0  0  0  0  0
    9.7341   15.4144   23.1325 C   0  0  0  0  0  0  0  0  0  0  0  0
   10.9185   15.2127   23.6766 N   0  0  0  0  0  0  0  0  0  0  0  0
   11.7793   15.2519   22.6068 C   0  0  0  0  0  0  0  0  0  0  0  0
   11.0783   15.4483   21.4461 C   0  0  0  0  0  0  0  0  0  0  0  0
    9.7661   15.5758   21.7737 O   0  0  0  0  0  0  0  0  0  0  0  0
  1  2  1  0
  2  3  1  0
  3  4  1  0
  4  5  1  0
  5  6  1  0
  6  7  1  0
  7  8  1  0
  8  9  1  0
  2 10  1  0
 10 11  2  0
 11 12  1  0
 12 13  2  0
 13 14  1  0
  9  4  1  0
 14 10  1  0
M  END
>  <tags>  (314) 
{'openbind_a71ev2a_c1_knitwork_pure', 'fragmenstein_placed'}

>  <distance_score>  (314) 
0.902071

>  <ref_mols>  (314) 
A4214a,A3623a

>  <smiles>  (314) 
CN(CC1CCNCC1)c1ncco1

>  <HIPPO Pose ID>  (314) 
270688

>  <inchikey>  (314) 
DIRAOWPNSMQXKI-UHFFFAOYSA-N

>  <ref_pdb>  (314) 
A1779a

>  <alias>  (314) 
C58995-P336

>  <energy_score>  (314) 
-48.727187

>  <HIPPO Compound ID>  (314) 
46715

$$$$
C58997-P336
     RDKit          3D

 14 15  0  0  0  0  0  0  0  0999 V2000
    6.6864   15.1954   22.4718 C   0  0  0  0  0  0  0  0  0  0  0  0
    7.4632   15.4832   23.6719 N   0  0  0  0  0  0  0  0  0  0  0  0
    8.6486   14.6202   23.8864 C   0  0  2  0  0  0  0  0  0  0  0  0
    9.8358   14.9576   23.0227 C   0  0  0  0  0  0  0  0  0  0  0  0
   11.0464   15.3141   23.4182 N   0  0  0  0  0  0  0  0  0  0  0  0
   11.7547   15.3980   22.2446 C   0  0  0  0  0  0  0  0  0  0  0  0
   10.9418   15.0879   21.1830 C   0  0  0  0  0  0  0  0  0  0  0  0
    9.7040   14.8002   21.6705 O   0  0  0  0  0  0  0  0  0  0  0  0
    8.3017   13.1112   23.8884 C   0  0  0  0  0  0  0  0  0  0  0  0
    9.5299   12.1919   23.8874 C   0  0  0  0  0  0  0  0  0  0  0  0
    9.1086   10.7296   23.9533 C   0  0  0  0  0  0  0  0  0  0  0  0
    8.2853   10.4499   25.1229 N   0  0  0  0  0  0  0  0  0  0  0  0
    7.1346   11.3203   25.2568 C   0  0  0  0  0  0  0  0  0  0  0  0
    7.4279   12.7985   25.1144 C   0  0  0  0  0  0  0  0  0  0  0  0
  1  2  1  0
  3  2  1  6
  3  4  1  0
  4  5  2  0
  5  6  1  0
  6  7  2  0
  7  8  1  0
  3  9  1  0
  9 10  1  0
 10 11  1  0
 11 12  1  0
 12 13  1  0
 13 14  1  0
  8  4  1  0
 14  9  1  0
M  END
>  <tags>  (315) 
{'openbind_a71ev2a_c1_knitwork_pure', 'fragmenstein_placed'}

>  <distance_score>  (315) 
0.936787

>  <ref_mols>  (315) 
A4214a,A3623a

>  <smiles>  (315) 
CN[C@H](c1ncco1)C1CCNCC1

>  <HIPPO Pose ID>  (315) 
270689

>  <inchikey>  (315) 
UKZBPLZISFOGHM-UHFFFAOYSA-N

>  <ref_pdb>  (315) 
A1779a

>  <alias>  (315) 
C58997-P336

>  <energy_score>  (315) 
-34.591991

>  <HIPPO Compound ID>  (315) 
48752

$$$$
C109281-P200
     RDKit          3D

 23 25  0  0  0  0  0  0  0  0999 V2000
    5.5079   16.2579   23.3052 C   0  0  0  0  0  0  0  0  0  0  0  0
    5.8896   15.2038   22.3860 N   0  0  0  0  0  0  0  0  0  0  0  0
    7.1841   14.6387   22.7717 C   0  0  0  0  0  0  0  0  0  0  0  0
    7.4908   14.6963   24.2813 C   0  0  0  0  0  0  0  0  0  0  0  0
    8.8899   14.1996   24.5959 C   0  0  0  0  0  0  0  0  0  0  0  0
    8.8742   12.7164   24.5887 C   0  0  0  0  0  0  0  0  0  0  0  0
    9.6067   12.0035   23.6503 C   0  0  0  0  0  0  0  0  0  0  0  0
    9.4882   10.6320   23.6669 C   0  0  0  0  0  0  0  0  0  0  0  0
    8.6487   10.0594   24.6057 C   0  0  0  0  0  0  0  0  0  0  0  0
    7.9237   10.8381   25.4768 C   0  0  0  0  0  0  0  0  0  0  0  0
    8.0472   12.1599   25.5090 N   0  0  0  0  0  0  0  0  0  0  0  0
    4.8156   14.2286   22.2839 C   0  0  0  0  0  0  0  0  0  0  0  0
    3.8212   14.4944   21.1965 C   0  0  0  0  0  0  0  0  0  0  0  0
    2.8181   15.3518   21.0744 N   0  0  0  0  0  0  0  0  0  0  0  0
    2.0300   14.8137   20.0832 C   0  0  0  0  0  0  0  0  0  0  0  0
    2.5994   13.6478   19.6637 C   0  0  0  0  0  0  0  0  0  0  0  0
    2.0656   12.4176   19.0758 C   0  0  0  0  0  0  0  0  0  0  0  0
    1.6663   11.5330   20.2717 C   0  0  0  0  0  0  0  0  0  0  0  0
    2.8768   10.9337   20.9956 C   0  0  0  0  0  0  0  0  0  0  0  0
    3.9629   10.5891   20.1342 O   0  0  0  0  0  0  0  0  0  0  0  0
    3.5035   10.3866   18.8144 C   0  0  0  0  0  0  0  0  0  0  0  0
    3.0805   11.7118   18.1901 C   0  0  0  0  0  0  0  0  0  0  0  0
    3.8137   13.5269   20.2436 O   0  0  0  0  0  0  0  0  0  0  0  0
  1  2  1  0
  2  3  1  0
  3  4  1  0
  4  5  1  0
  5  6  1  0
  6  7  2  0
  7  8  1  0
  8  9  2  0
  9 10  1  0
 10 11  2  0
  2 12  1  0
 12 13  1  0
 13 14  2  0
 14 15  1  0
 15 16  2  0
 16 17  1  0
 17 18  1  0
 18 19  1  0
 19 20  1  0
 20 21  1  0
 21 22  1  0
 16 23  1  0
 11  6  1  0
 23 13  1  0
 22 17  1  0
M  END
>  <tags>  (316) 
{'openbind_a71ev2a_c1_knitwork_pure', 'fragmenstein_placed'}

>  <distance_score>  (316) 
0.920804

>  <ref_mols>  (316) 
A3623a,A0473a

>  <smiles>  (316) 
CN(CCCc1ccccn1)Cc1ncc(C2CCOCC2)o1

>  <HIPPO Pose ID>  (316) 
271531

>  <inchikey>  (316) 
SBHQGIHIWSVJJD-UHFFFAOYSA-N

>  <ref_pdb>  (316) 
A3623a

>  <alias>  (316) 
C109281-P200

>  <energy_score>  (316) 
-12.910885

>  <HIPPO Compound ID>  (316) 
75046

$$$$
C3275-P465
     RDKit          3D

 12 13  0  0  0  0  0  0  0  0999 V2000
    9.3510   10.4932   23.8136 C   0  0  0  0  0  0  0  0  0  0  0  0
    9.5945   11.7739   23.3557 C   0  0  0  0  0  0  0  0  0  0  0  0
    8.8718   12.8044   23.9186 C   0  0  0  0  0  0  0  0  0  0  0  0
    9.0720   14.1313   23.5755 N   0  0  0  0  0  0  0  0  0  0  0  0
   10.2432   14.7798   24.1577 C   0  0  0  0  0  0  0  0  0  0  0  0
   11.4080   14.8213   23.1723 C   0  0  0  0  0  0  0  0  0  0  0  0
   10.9902   15.4819   21.8644 C   0  0  0  0  0  0  0  0  0  0  0  0
    9.7928   14.7500   21.2705 C   0  0  0  0  0  0  0  0  0  0  0  0
    8.6362   14.6135   22.2603 C   0  0  0  0  0  0  0  0  0  0  0  0
    7.9578   12.5489   24.8703 N   0  0  0  0  0  0  0  0  0  0  0  0
    7.7873   11.2706   25.2408 C   0  0  0  0  0  0  0  0  0  0  0  0
    8.4476   10.2096   24.7648 N   0  0  0  0  0  0  0  0  0  0  0  0
  1  2  2  0
  2  3  1  0
  3  4  1  0
  4  5  1  0
  5  6  1  0
  6  7  1  0
  7  8  1  0
  8  9  1  0
  3 10  2  0
 10 11  1  0
 11 12  2  0
 12  1  1  0
  9  4  1  0
M  END
>  <tags>  (317) 
{'openbind_a71ev2a_c1_knitwork_pure', 'fragmenstein_placed'}

>  <distance_score>  (317) 
0.715474

>  <ref_mols>  (317) 
A4786a,A1068a

>  <smiles>  (317) 
c1cc(N2CCCCC2)ncn1

>  <HIPPO Pose ID>  (317) 
272846

>  <inchikey>  (317) 
CIXBAERDBPDAKY-UHFFFAOYSA-N

>  <ref_pdb>  (317) 
A3623a

>  <alias>  (317) 
C3275-P465

>  <energy_score>  (317) 
-11.516858

>  <HIPPO Compound ID>  (317) 
75041

$$$$
C55918-P109
     RDKit          3D

 21 22  0  0  0  0  0  0  0  0999 V2000
   36.2486   20.3618   18.9973 C   0  0  0  0  0  0  0  0  0  0  0  0
   35.6631   21.5437   19.7449 C   0  0  0  0  0  0  0  0  0  0  0  0
   34.2652   21.7048   19.4489 N   0  0  0  0  0  0  0  0  0  0  0  0
   33.5635   22.3700   18.2381 C   0  0  0  0  0  0  0  0  0  0  0  0
   34.0109   22.8207   17.2586 O   0  0  0  0  0  0  0  0  0  0  0  0
   32.0467   22.3539   18.4825 C   0  0  0  0  0  0  0  0  0  0  0  0
   31.4898   20.9382   18.6432 C   0  0  0  0  0  0  0  0  0  0  0  0
   29.9817   20.9693   18.8694 C   0  0  0  0  0  0  0  0  0  0  0  0
   29.6559   21.8570   19.9851 N   0  0  0  0  0  0  0  0  0  0  0  0
   28.3229   21.7523   20.4134 C   0  0  0  0  0  0  0  0  0  0  0  0
   27.6481   20.6111   20.1824 N   0  0  0  0  0  0  0  0  0  0  0  0
   26.3590   20.5469   20.5771 C   0  0  0  0  0  0  0  0  0  0  0  0
   25.6787   21.5920   21.1410 C   0  0  0  0  0  0  0  0  0  0  0  0
   24.3547   21.6142   21.4443 O   0  0  0  0  0  0  0  0  0  0  0  0
   23.4873   21.2227   20.3560 C   0  0  0  0  0  0  0  0  0  0  0  0
   23.5905   22.1645   19.1538 C   0  0  0  0  0  0  0  0  0  0  0  0
   22.0654   21.2418   20.9119 C   0  0  0  0  0  0  0  0  0  0  0  0
   26.4534   22.6928   21.3960 C   0  0  0  0  0  0  0  0  0  0  0  0
   27.7538   22.7973   21.0479 N   0  0  0  0  0  0  0  0  0  0  0  0
   30.1286   23.2343   19.8662 C   0  0  0  0  0  0  0  0  0  0  0  0
   31.6419   23.2454   19.6580 C   0  0  0  0  0  0  0  0  0  0  0  0
  1  2  1  0
  2  3  1  0
  3  4  1  0
  4  5  2  0
  4  6  1  0
  6  7  1  0
  7  8  1  0
  8  9  1  0
  9 10  1  0
 10 11  2  0
 11 12  1  0
 12 13  2  0
 13 14  1  0
 14 15  1  0
 15 16  1  0
 15 17  1  0
 13 18  1  0
 18 19  2  0
  9 20  1  0
 20 21  1  0
 21  6  1  0
 19 10  1  0
M  END
>  <tags>  (318) 
{'openbind_a71ev2a_c1_knitwork_pure', 'fragmenstein_placed'}

>  <distance_score>  (318) 
0.702669

>  <ref_mols>  (318) 
A3181b,A1146a

>  <smiles>  (318) 
CCNC(=O)C1CCN(c2ncc(OC(C)C)cn2)CC1

>  <HIPPO Pose ID>  (318) 
273856

>  <inchikey>  (318) 
FIQGWCSDZCNMCO-UHFFFAOYSA-N

>  <ref_pdb>  (318) 
A3623a

>  <alias>  (318) 
C55918-P109

>  <energy_score>  (318) 
-21.168355

>  <HIPPO Compound ID>  (318) 
32955

$$$$
C109280-P136
     RDKit          3D

 22 25  0  0  0  0  0  0  0  0999 V2000
   -2.6251   17.3154   22.9835 C   0  0  0  0  0  0  0  0  0  0  0  0
   -2.2638   16.5679   21.8766 C   0  0  0  0  0  0  0  0  0  0  0  0
   -1.1103   15.7861   21.9522 C   0  0  0  0  0  0  0  0  0  0  0  0
   -0.6970   14.9696   20.8202 C   0  0  0  0  0  0  0  0  0  0  0  0
   -1.2988   15.0466   19.5888 N   0  0  0  0  0  0  0  0  0  0  0  0
   -0.6374   14.1774   18.8491 C   0  0  0  0  0  0  0  0  0  0  0  0
   -0.9474   13.9075   17.4824 C   0  0  0  0  0  0  0  0  0  0  0  0
   -0.9610   12.7231   16.7674 C   0  0  0  0  0  0  0  0  0  0  0  0
   -1.3423   12.9320   15.4668 N   0  0  0  0  0  0  0  0  0  0  0  0
   -1.5833   14.2212   15.4346 C   0  0  0  0  0  0  0  0  0  0  0  0
   -1.3837   14.8770   16.6057 O   0  0  0  0  0  0  0  0  0  0  0  0
    0.3486   13.6123   19.6174 N   0  0  0  0  0  0  0  0  0  0  0  0
    1.3955   12.6788   19.2438 C   0  0  0  0  0  0  0  0  0  0  0  0
    2.6347   13.3839   18.6886 C   0  0  0  0  0  0  0  0  0  0  0  0
    3.6809   12.3487   18.3020 C   0  0  0  0  0  0  0  0  0  0  0  0
    3.9858   11.4669   19.3862 O   0  0  0  0  0  0  0  0  0  0  0  0
    2.8379   10.7720   19.8529 C   0  0  0  0  0  0  0  0  0  0  0  0
    1.8145   11.7489   20.3867 C   0  0  0  0  0  0  0  0  0  0  0  0
    0.2789   14.0568   20.8849 N   0  0  0  0  0  0  0  0  0  0  0  0
   -0.3615   15.8027   23.1329 C   0  0  0  0  0  0  0  0  0  0  0  0
   -0.8034   16.5851   24.1847 C   0  0  0  0  0  0  0  0  0  0  0  0
   -1.9254   17.3338   24.1384 N   0  0  0  0  0  0  0  0  0  0  0  0
  1  2  2  0
  2  3  1  0
  3  4  1  0
  4  5  1  0
  5  6  2  0
  6  7  1  0
  7  8  2  0
  8  9  1  0
  9 10  2  0
 10 11  1  0
  6 12  1  0
 12 13  1  0
 13 14  1  0
 14 15  1  0
 15 16  1  0
 16 17  1  0
 17 18  1  0
 12 19  1  0
  3 20  2  0
 20 21  1  0
 21 22  2  0
 22  1  1  0
 19  4  2  0
 11  7  1  0
 18 13  1  0
M  END
>  <tags>  (319) 
{'openbind_a71ev2a_c1_knitwork_pure', 'fragmenstein_placed'}

>  <distance_score>  (319) 
0.679801

>  <ref_mols>  (319) 
A2846a,A0473a

>  <smiles>  (319) 
c1cc(-c2nc(-c3cnco3)n(C3CCOCC3)n2)ccn1

>  <HIPPO Pose ID>  (319) 
275514

>  <inchikey>  (319) 
RVXODQUPALHEDR-UHFFFAOYSA-N

>  <ref_pdb>  (319) 
A3623a

>  <alias>  (319) 
C109280-P136

>  <energy_score>  (319) 
-41.151242

>  <HIPPO Compound ID>  (319) 
74534

$$$$
C55393-P128
     RDKit          3D

 15 15  0  0  0  0  0  0  0  0999 V2000
   12.2613   14.5785   19.6657 C   0  0  0  0  0  0  0  0  0  0  0  0
   11.9706   14.9197   21.1063 C   0  0  0  0  0  0  0  0  0  0  0  0
   11.3365   13.8378   21.8145 N   0  0  0  0  0  0  0  0  0  0  0  0
   10.6788   13.8039   23.1962 C   0  0  0  0  0  0  0  0  0  0  0  0
   10.6097   14.6225   24.0180 O   0  0  0  0  0  0  0  0  0  0  0  0
   10.0756   12.4742   23.4468 C   0  0  0  0  0  0  0  0  0  0  0  0
   10.5257   11.3374   22.8908 N   0  0  0  0  0  0  0  0  0  0  0  0
    9.8005   10.3575   23.4561 N   0  0  0  0  0  0  0  0  0  0  0  0
    8.8313   10.8193   24.3006 C   0  0  0  0  0  0  0  0  0  0  0  0
    7.9102    9.9296   25.0272 C   0  0  0  0  0  0  0  0  0  0  0  0
    8.9664   12.1902   24.2639 C   0  0  0  0  0  0  0  0  0  0  0  0
    7.9729   13.4020   24.9149 S   0  0  0  0  0  0  0  0  0  0  0  0
    6.6045   12.6770   25.5584 N   0  0  0  0  0  0  0  0  0  0  0  0
    8.6868   13.9429   26.0430 O   0  0  0  0  0  0  0  0  0  0  0  0
    7.5425   14.1200   23.7405 O   0  0  0  0  0  0  0  0  0  0  0  0
  1  2  1  0
  2  3  1  0
  3  4  1  0
  4  5  2  0
  4  6  1  0
  6  7  2  0
  7  8  1  0
  8  9  1  0
  9 10  1  0
  9 11  2  0
 11 12  1  0
 12 13  1  0
 12 14  2  0
 12 15  2  0
 11  6  1  0
M  END
>  <tags>  (320) 
{'openbind_a71ev2a_c1_knitwork_pure', 'fragmenstein_placed'}

>  <distance_score>  (320) 
0.942235

>  <ref_mols>  (320) 
A2304a,A3618a

>  <smiles>  (320) 
CCNC(=O)c1n[nH]c(C)c1S(N)(=O)=O

>  <HIPPO Pose ID>  (320) 
276656

>  <inchikey>  (320) 
DLCSXKSRGUYCLO-UHFFFAOYSA-N

>  <ref_pdb>  (320) 
A3623a

>  <alias>  (320) 
C55393-P128

>  <energy_score>  (320) 
-41.960034

>  <HIPPO Compound ID>  (320) 
47226

$$$$
C45658-P197
     RDKit          3D

 16 18  0  0  0  0  0  0  0  0999 V2000
    7.6244   14.4880   23.4714 C   0  0  0  0  0  0  0  0  0  0  0  0
    7.0705   13.5940   24.2971 N   0  0  0  0  0  0  0  0  0  0  0  0
    8.1239   12.9864   24.8649 N   0  0  0  0  0  0  0  0  0  0  0  0
    8.1076   11.5826   25.1902 C   0  0  0  0  0  0  0  0  0  0  0  0
    6.8198   10.9782   25.6952 C   0  0  0  0  0  0  0  0  0  0  0  0
    6.9302    9.5091   25.3266 C   0  0  0  0  0  0  0  0  0  0  0  0
    8.1162    9.3363   24.3844 C   0  0  0  0  0  0  0  0  0  0  0  0
    8.5781   10.7257   24.0331 C   0  0  0  0  0  0  0  0  0  0  0  0
    9.2970   13.6396   24.6219 C   0  0  0  0  0  0  0  0  0  0  0  0
    9.0312   14.4464   23.5357 C   0  0  0  0  0  0  0  0  0  0  0  0
   10.0540   14.8920   22.5583 C   0  0  2  0  0  0  0  0  0  0  0  0
   11.3415   15.4023   23.2102 C   0  0  0  0  0  0  0  0  0  0  0  0
   12.3932   15.4530   22.1205 C   0  0  0  0  0  0  0  0  0  0  0  0
   11.9344   16.3294   20.9662 C   0  0  0  0  0  0  0  0  0  0  0  0
   10.6366   15.9328   20.4293 N   0  0  0  0  0  0  0  0  0  0  0  0
    9.6011   15.8606   21.4624 C   0  0  0  0  0  0  0  0  0  0  0  0
  1  2  2  0
  2  3  1  0
  3  4  1  0
  4  5  1  0
  5  6  1  0
  6  7  1  0
  7  8  1  0
  3  9  1  0
  9 10  2  0
 11 10  1  1
 11 12  1  0
 12 13  1  0
 13 14  1  0
 14 15  1  0
 15 16  1  0
 10  1  1  0
 16 11  1  0
  8  4  1  0
M  END
>  <tags>  (321) 
{'openbind_a71ev2a_c1_knitwork_pure', 'fragmenstein_placed'}

>  <distance_score>  (321) 
0.852886

>  <ref_mols>  (321) 
A0556a,A3616b

>  <smiles>  (321) 
c1nn(C2CCCC2)cc1[C@@H]1CCCNC1

>  <HIPPO Pose ID>  (321) 
278359

>  <inchikey>  (321) 
IBDCOPOSACUADV-UHFFFAOYSA-N

>  <ref_pdb>  (321) 
A3623a

>  <alias>  (321) 
C45658-P197

>  <energy_score>  (321) 
-21.634311

>  <HIPPO Compound ID>  (321) 
22252

$$$$
C64747-P344
     RDKit          3D

 21 24  0  0  0  0  0  0  0  0999 V2000
   11.4148   15.5037   19.6493 C   0  0  0  0  0  0  0  0  0  0  0  0
   10.0381   15.3189   19.6906 C   0  0  0  0  0  0  0  0  0  0  0  0
    9.4017   15.0050   20.8928 C   0  0  0  0  0  0  0  0  0  0  0  0
   10.1573   14.8971   22.0429 C   0  0  0  0  0  0  0  0  0  0  0  0
   11.5225   15.1507   22.0105 C   0  0  0  0  0  0  0  0  0  0  0  0
   12.1613   15.4573   20.8263 C   0  0  0  0  0  0  0  0  0  0  0  0
   12.0950   14.8913   23.3520 C   0  0  0  0  0  0  0  0  0  0  0  0
   10.8164   14.8633   24.1943 C   0  0  0  0  0  0  0  0  0  0  0  0
    9.6867   14.4614   23.3231 N   0  0  0  0  0  0  0  0  0  0  0  0
    9.4198   13.0149   23.2431 C   0  0  0  0  0  0  0  0  0  0  0  0
    8.5731   12.5127   24.3784 C   0  0  0  0  0  0  0  0  0  0  0  0
    8.3706   11.1467   24.5736 C   0  0  0  0  0  0  0  0  0  0  0  0
    7.5079   10.7135   25.5844 C   0  0  0  0  0  0  0  0  0  0  0  0
    6.8800   11.6419   26.4134 C   0  0  0  0  0  0  0  0  0  0  0  0
    6.0925   11.2744   27.4789 N   0  0  0  0  0  0  0  0  0  0  0  0
    5.4269   12.3235   28.2458 C   0  0  0  0  0  0  0  0  0  0  0  0
    4.5826   11.5330   29.2393 C   0  0  0  0  0  0  0  0  0  0  0  0
    4.1302   10.3449   28.4068 C   0  0  0  0  0  0  0  0  0  0  0  0
    5.3515   10.0217   27.5421 C   0  0  0  0  0  0  0  0  0  0  0  0
    7.0974   12.9598   26.2390 N   0  0  0  0  0  0  0  0  0  0  0  0
    7.8818   13.3670   25.2181 C   0  0  0  0  0  0  0  0  0  0  0  0
  1  2  2  0
  2  3  1  0
  3  4  2  0
  4  5  1  0
  5  6  2  0
  5  7  1  0
  7  8  1  0
  8  9  1  0
  9 10  1  0
 10 11  1  0
 11 12  2  0
 12 13  1  0
 13 14  2  0
 14 15  1  0
 15 16  1  0
 16 17  1  0
 17 18  1  0
 18 19  1  0
 14 20  1  0
 20 21  2  0
  6  1  1  0
 21 11  1  0
  9  4  1  0
 19 15  1  0
M  END
>  <tags>  (322) 
{'openbind_a71ev2a_c1_knitwork_pure', 'fragmenstein_placed'}

>  <distance_score>  (322) 
0.998001

>  <ref_mols>  (322) 
A4274b,A1778a

>  <smiles>  (322) 
c1ccc2c(c1)CCN2Cc1ccc(N2CCCC2)nc1

>  <HIPPO Pose ID>  (322) 
280124

>  <inchikey>  (322) 
GBIVHNMPUDCSBY-UHFFFAOYSA-N

>  <ref_pdb>  (322) 
A0428a

>  <alias>  (322) 
C64747-P344

>  <energy_score>  (322) 
-25.077251

>  <HIPPO Compound ID>  (322) 
51172

$$$$
C108276-P28
     RDKit          3D

 20 22  0  0  0  0  0  0  0  0999 V2000
    5.2642   12.4775   26.9627 C   0  0  0  0  0  0  0  0  0  0  0  0
    6.2247   11.2875   27.0308 C   0  0  1  0  0  0  0  0  0  0  0  0
    5.4746   10.0344   27.1784 N   0  0  0  0  0  0  0  0  0  0  0  0
    5.1624    9.7894   28.5988 C   0  0  0  0  0  0  0  0  0  0  0  0
    4.3698    8.5062   28.8512 C   0  0  0  0  0  0  0  0  0  0  0  0
    2.9083    8.6457   28.6103 C   0  0  0  0  0  0  0  0  0  0  0  0
    2.1134    7.9359   27.6890 C   0  0  0  0  0  0  0  0  0  0  0  0
    0.8217    8.3177   27.9710 C   0  0  0  0  0  0  0  0  0  0  0  0
    0.9027    9.2551   28.9612 N   0  0  0  0  0  0  0  0  0  0  0  0
   -0.1642    9.9867   29.6133 C   0  0  0  0  0  0  0  0  0  0  0  0
   -1.5952    9.6110   29.2253 C   0  0  0  0  0  0  0  0  0  0  0  0
   -2.4116   10.7625   29.7912 C   0  0  0  0  0  0  0  0  0  0  0  0
   -1.5424   11.9995   29.5825 C   0  0  0  0  0  0  0  0  0  0  0  0
   -0.1236   11.4909   29.3236 C   0  0  0  0  0  0  0  0  0  0  0  0
    2.1699    9.4677   29.3658 N   0  0  0  0  0  0  0  0  0  0  0  0
    7.1619   11.3061   25.8692 C   0  0  0  0  0  0  0  0  0  0  0  0
    7.6419   12.3478   25.0973 C   0  0  0  0  0  0  0  0  0  0  0  0
    8.6033   11.7707   24.2574 C   0  0  0  0  0  0  0  0  0  0  0  0
    8.7321   10.4639   24.4707 N   0  0  0  0  0  0  0  0  0  0  0  0
    7.7980   10.2026   25.3853 N   0  0  0  0  0  0  0  0  0  0  0  0
  2  1  1  6
  2  3  1  0
  3  4  1  0
  4  5  1  0
  5  6  1  0
  6  7  1  0
  7  8  2  0
  8  9  1  0
  9 10  1  0
 10 11  1  0
 11 12  1  0
 12 13  1  0
 13 14  1  0
  9 15  1  0
  2 16  1  0
 16 17  2  0
 17 18  1  0
 18 19  2  0
 19 20  1  0
 15  6  2  0
 20 16  1  0
 14 10  1  0
M  END
>  <tags>  (323) 
{'openbind_a71ev2a_c1_knitwork_pure', 'fragmenstein_placed'}

>  <distance_score>  (323) 
0.863695

>  <ref_mols>  (323) 
A0556a,A0717a

>  <smiles>  (323) 
C[C@@H](NCCc1ccn(C2CCCC2)n1)c1ccn[nH]1

>  <HIPPO Pose ID>  (323) 
281168

>  <inchikey>  (323) 
XTXBBFCZAMJCJV-UHFFFAOYSA-N

>  <ref_pdb>  (323) 
A0528b

>  <alias>  (323) 
C108276-P28

>  <energy_score>  (323) 
-28.54771

>  <HIPPO Compound ID>  (323) 
54009

$$$$
C104338-P12
     RDKit          3D

 30 34  0  0  0  0  0  0  0  0999 V2000
   21.5226   -3.9747   22.0518 O   0  0  0  0  0  0  0  0  0  0  0  0
   21.1071   -3.7856   20.9744 C   0  0  0  0  0  0  0  0  0  0  0  0
   21.1016   -2.4936   20.1099 N   0  0  0  0  0  0  0  0  0  0  0  0
   21.6939   -1.1895   20.3581 C   0  0  0  0  0  0  0  0  0  0  0  0
   20.8968    0.0266   19.8633 C   0  0  0  0  0  0  0  0  0  0  0  0
   19.7663    0.5529   20.7758 C   0  0  0  0  0  0  0  0  0  0  0  0
   18.7649   -0.5031   21.0227 C   0  0  0  0  0  0  0  0  0  0  0  0
   17.8399   -0.9064   20.1739 N   0  0  0  0  0  0  0  0  0  0  0  0
   17.3733   -2.1210   20.6131 N   0  0  0  0  0  0  0  0  0  0  0  0
   17.9813   -2.4031   21.7454 C   0  0  0  0  0  0  0  0  0  0  0  0
   17.9266   -3.5159   22.6254 C   0  0  0  0  0  0  0  0  0  0  0  0
   18.6382   -3.4979   23.7702 C   0  0  0  0  0  0  0  0  0  0  0  0
   19.4688   -2.3606   24.1328 C   0  0  0  0  0  0  0  0  0  0  0  0
   19.5365   -1.3143   23.2930 C   0  0  0  0  0  0  0  0  0  0  0  0
   18.8067   -1.3518   22.1046 N   0  0  0  0  0  0  0  0  0  0  0  0
   20.5478   -4.9946   20.1811 C   0  0  1  0  0  0  0  0  0  0  0  0
   19.8756   -5.9977   21.1358 C   0  0  0  0  0  0  0  0  0  0  0  0
   18.7066   -6.5918   20.3767 C   0  0  0  0  0  0  0  0  0  0  0  0
   18.0011   -7.4695   20.8526 O   0  0  0  0  0  0  0  0  0  0  0  0
   18.7089   -6.0098   19.1118 N   0  0  0  0  0  0  0  0  0  0  0  0
   18.2523   -6.7179   18.0013 C   0  0  0  0  0  0  0  0  0  0  0  0
   17.1175   -7.4280   18.0063 N   0  0  0  0  0  0  0  0  0  0  0  0
   17.0302   -7.9357   16.7705 N   0  0  0  0  0  0  0  0  0  0  0  0
   18.1074   -7.6744   15.9724 C   0  0  0  0  0  0  0  0  0  0  0  0
   18.4176   -8.0710   14.6659 C   0  0  0  0  0  0  0  0  0  0  0  0
   19.6452   -7.6525   14.1434 C   0  0  0  0  0  0  0  0  0  0  0  0
   20.5225   -6.8830   14.9021 C   0  0  0  0  0  0  0  0  0  0  0  0
   20.1884   -6.4995   16.2060 C   0  0  0  0  0  0  0  0  0  0  0  0
   18.9412   -6.8765   16.7502 C   0  0  0  0  0  0  0  0  0  0  0  0
   19.5005   -4.8033   19.1108 C   0  0  0  0  0  0  0  0  0  0  0  0
  1  2  2  0
  2  3  1  0
  3  4  1  0
  4  5  1  0
  5  6  1  0
  6  7  1  0
  7  8  2  0
  8  9  1  0
  9 10  2  0
 10 11  1  0
 11 12  2  0
 12 13  1  0
 13 14  2  0
 14 15  1  0
 16  2  1  1
 16 17  1  0
 17 18  1  0
 18 19  2  0
 18 20  1  0
 20 21  1  0
 21 22  2  0
 22 23  1  0
 23 24  1  0
 24 25  2  0
 25 26  1  0
 26 27  2  0
 27 28  1  0
 28 29  2  0
 20 30  1  0
 15  7  1  0
 30 16  1  0
 15 10  1  0
 29 21  1  0
 29 24  1  0
M  END
>  <tags>  (324) 
{'openbind_a71ev2a_c1_knitwork_pure', 'fragmenstein_placed'}

>  <distance_score>  (324) 
0.777155

>  <ref_mols>  (324) 
A0497a,A1293a

>  <smiles>  (324) 
O=C(NCCCc1nnc2ccccn12)[C@H]1CC(=O)N(c2n[nH]c3ccccc23)C1

>  <HIPPO Pose ID>  (324) 
281699

>  <inchikey>  (324) 
BESYEBIXTNPBCZ-UHFFFAOYSA-N

>  <ref_pdb>  (324) 
A0528b

>  <alias>  (324) 
C104338-P12

>  <energy_score>  (324) 
-14.359512

>  <HIPPO Compound ID>  (324) 
116664

$$$$
C12359-P348
     RDKit          3D

 13 13  0  0  0  0  0  0  0  0999 V2000
    7.2149   16.0058   26.4480 C   0  0  0  0  0  0  0  0  0  0  0  0
    8.0096   15.5276   25.2466 C   0  0  0  0  0  0  0  0  0  0  0  0
    7.0976   15.1151   24.0958 C   0  0  0  0  0  0  0  0  0  0  0  0
    7.9092   13.9988   22.9570 S   0  0  0  0  0  0  0  0  0  0  0  0
    8.9449   14.7457   22.2789 O   0  0  0  0  0  0  0  0  0  0  0  0
    6.9345   13.2486   22.1995 O   0  0  0  0  0  0  0  0  0  0  0  0
    8.7253   12.8923   23.9538 N   0  0  0  0  0  0  0  0  0  0  0  0
    7.9990   11.8811   24.6750 C   0  0  0  0  0  0  0  0  0  0  0  0
    7.0492   12.2024   25.6437 C   0  0  0  0  0  0  0  0  0  0  0  0
    6.3678   11.2100   26.3413 C   0  0  0  0  0  0  0  0  0  0  0  0
    6.6834    9.9005   26.0675 C   0  0  0  0  0  0  0  0  0  0  0  0
    7.6372    9.5361   25.1880 N   0  0  0  0  0  0  0  0  0  0  0  0
    8.2684   10.5289   24.5043 C   0  0  0  0  0  0  0  0  0  0  0  0
  1  2  1  0
  2  3  1  0
  3  4  1  0
  4  5  2  0
  4  6  2  0
  4  7  1  0
  7  8  1  0
  8  9  2  0
  9 10  1  0
 10 11  2  0
 11 12  1  0
 12 13  2  0
 13  8  1  0
M  END
>  <tags>  (325) 
{'openbind_a71ev2a_c1_knitwork_pure', 'fragmenstein_placed'}

>  <distance_score>  (325) 
0.907341

>  <ref_mols>  (325) 
A4388a,A0719a

>  <smiles>  (325) 
CCCS(=O)(=O)Nc1cccnc1

>  <HIPPO Pose ID>  (325) 
281991

>  <inchikey>  (325) 
IZLSOQIKOWDXOQ-UHFFFAOYSA-N

>  <ref_pdb>  (325) 
A0528b

>  <alias>  (325) 
C12359-P348

>  <energy_score>  (325) 
-23.151827

>  <HIPPO Compound ID>  (325) 
68683

$$$$
C51862-P384
     RDKit          3D

 11 11  0  0  0  0  0  0  0  0999 V2000
    8.8803   14.4396   25.4289 C   0  0  0  0  0  0  0  0  0  0  0  0
    7.9883   13.6093   24.5224 C   0  0  1  0  0  0  0  0  0  0  0  0
    8.0529   14.0694   23.0805 C   0  0  0  0  0  0  0  0  0  0  0  0
    7.4827   13.4834   22.1593 O   0  0  0  0  0  0  0  0  0  0  0  0
    8.2421   12.1261   24.6423 C   0  0  0  0  0  0  0  0  0  0  0  0
    7.3114   11.4238   25.3435 N   0  0  0  0  0  0  0  0  0  0  0  0
    7.4182   10.0827   25.3242 C   0  0  0  0  0  0  0  0  0  0  0  0
    8.4267    9.3944   24.6734 C   0  0  0  0  0  0  0  0  0  0  0  0
    9.3990   10.1184   24.0037 C   0  0  0  0  0  0  0  0  0  0  0  0
    9.3124   11.5015   23.9935 C   0  0  0  0  0  0  0  0  0  0  0  0
   10.2494   12.2409   23.3360 O   0  0  0  0  0  0  0  0  0  0  0  0
  2  1  1  1
  2  3  1  0
  3  4  2  0
  2  5  1  0
  5  6  2  0
  6  7  1  0
  7  8  2  0
  8  9  1  0
  9 10  2  0
 10 11  1  0
 10  5  1  0
M  END
>  <tags>  (326) 
{'openbind_a71ev2a_c1_knitwork_pure', 'fragmenstein_placed'}

>  <distance_score>  (326) 
0.920973

>  <ref_mols>  (326) 
A4509a,A3564a

>  <smiles>  (326) 
C[C@@H](C=O)c1ncccc1O

>  <HIPPO Pose ID>  (326) 
283064

>  <inchikey>  (326) 
ABTJDCJBWSBSRN-UHFFFAOYSA-N

>  <ref_pdb>  (326) 
A0528b

>  <alias>  (326) 
C51862-P384

>  <energy_score>  (326) 
-20.631312

>  <HIPPO Compound ID>  (326) 
50927

$$$$
C46321-P374
     RDKit          3D

 21 23  0  0  0  0  0  0  0  0999 V2000
   20.9878   20.1939   23.3912 C   0  0  0  0  0  0  0  0  0  0  0  0
   21.5275   20.9386   22.1825 C   0  0  0  0  0  0  0  0  0  0  0  0
   22.9447   20.4835   21.8129 C   0  0  0  0  0  0  0  0  0  0  0  0
   23.4834   21.1672   20.5947 C   0  0  0  0  0  0  0  0  0  0  0  0
   22.6769   21.3826   19.5440 N   0  0  0  0  0  0  0  0  0  0  0  0
   23.4698   21.9820   18.6454 N   0  0  0  0  0  0  0  0  0  0  0  0
   24.7665   22.1263   19.0481 C   0  0  0  0  0  0  0  0  0  0  0  0
   25.8700   22.6436   18.3695 C   0  0  0  0  0  0  0  0  0  0  0  0
   27.0680   22.7029   19.0731 C   0  0  0  0  0  0  0  0  0  0  0  0
   27.1476   22.2441   20.3936 C   0  0  0  0  0  0  0  0  0  0  0  0
   28.4102   22.4811   21.1468 C   0  0  0  0  0  0  0  0  0  0  0  0
   28.3572   22.9654   22.2056 O   0  0  0  0  0  0  0  0  0  0  0  0
   29.6260   22.1015   20.2830 N   0  0  0  0  0  0  0  0  0  0  0  0
   31.0435   22.1505   20.5795 C   0  0  1  0  0  0  0  0  0  0  0  0
   31.7929   20.9997   19.8955 C   0  0  0  0  0  0  0  0  0  0  0  0
   32.4821   21.4199   18.5947 C   0  0  0  0  0  0  0  0  0  0  0  0
   31.7325   22.5374   17.8796 C   0  0  0  0  0  0  0  0  0  0  0  0
   31.5756   23.7473   18.6859 N   0  0  0  0  0  0  0  0  0  0  0  0
   31.6260   23.5094   20.1405 C   0  0  0  0  0  0  0  0  0  0  0  0
   26.0352   21.6781   21.0437 C   0  0  0  0  0  0  0  0  0  0  0  0
   24.8131   21.6230   20.3437 C   0  0  0  0  0  0  0  0  0  0  0  0
  1  2  1  0
  2  3  1  0
  3  4  1  0
  4  5  2  0
  5  6  1  0
  6  7  1  0
  7  8  2  0
  8  9  1  0
  9 10  2  0
 10 11  1  0
 11 12  2  0
 11 13  1  0
 14 13  1  6
 14 15  1  0
 15 16  1  0
 16 17  1  0
 17 18  1  0
 18 19  1  0
 10 20  1  0
 20 21  2  0
 21  4  1  0
 21  7  1  0
 19 14  1  0
M  END
>  <tags>  (327) 
{'openbind_a71ev2a_c1_knitwork_pure', 'fragmenstein_placed'}

>  <distance_score>  (327) 
0.802932

>  <ref_mols>  (327) 
A3181b,A4463a

>  <smiles>  (327) 
CCCc1n[nH]c2ccc(C(=O)N[C@H]3CCCNC3)cc12

>  <HIPPO Pose ID>  (327) 
283286

>  <inchikey>  (327) 
HZAWDDKMHSREJD-UHFFFAOYSA-N

>  <ref_pdb>  (327) 
A0528b

>  <alias>  (327) 
C46321-P374

>  <energy_score>  (327) 
-11.173144

>  <HIPPO Compound ID>  (327) 
47059

$$$$
C72578-P363
     RDKit          3D

 23 25  0  0  0  0  0  0  0  0999 V2000
   10.3857   14.5260   18.3762 C   0  0  0  0  0  0  0  0  0  0  0  0
   11.3369   15.5141   18.9397 C   0  0  0  0  0  0  0  0  0  0  0  0
   10.6219   16.1344   20.0920 C   0  0  0  0  0  0  0  0  0  0  0  0
    9.8252   17.0548   19.9708 O   0  0  0  0  0  0  0  0  0  0  0  0
   10.7916   15.5029   21.3990 C   0  0  0  0  0  0  0  0  0  0  0  0
   12.0144   15.5386   22.0603 C   0  0  0  0  0  0  0  0  0  0  0  0
   12.1213   14.9434   23.3150 C   0  0  0  0  0  0  0  0  0  0  0  0
   11.0272   14.3066   23.8928 C   0  0  0  0  0  0  0  0  0  0  0  0
    9.8104   14.2951   23.2111 C   0  0  0  0  0  0  0  0  0  0  0  0
    8.3183   13.7602   23.9608 S   0  0  0  0  0  0  0  0  0  0  0  0
    7.5964   12.9287   23.0199 O   0  0  0  0  0  0  0  0  0  0  0  0
    7.7782   14.9747   24.5283 O   0  0  0  0  0  0  0  0  0  0  0  0
    8.7742   12.7969   25.2952 N   0  0  0  0  0  0  0  0  0  0  0  0
    7.6316   12.5095   26.1173 C   0  0  0  0  0  0  0  0  0  0  0  0
    6.9900   11.2777   25.9896 C   0  0  0  0  0  0  0  0  0  0  0  0
    5.8609   10.9978   26.7671 C   0  0  0  0  0  0  0  0  0  0  0  0
    5.3642   11.9767   27.6074 C   0  0  0  0  0  0  0  0  0  0  0  0
    6.0050   13.2052   27.7210 C   0  0  0  0  0  0  0  0  0  0  0  0
    7.1391   13.4909   26.9881 C   0  0  0  0  0  0  0  0  0  0  0  0
    5.3036   14.0361   28.7373 C   0  0  0  0  0  0  0  0  0  0  0  0
    4.0028   13.2285   28.8972 C   0  0  0  0  0  0  0  0  0  0  0  0
    4.2884   11.8300   28.5162 N   0  0  0  0  0  0  0  0  0  0  0  0
    9.6797   14.8965   21.9638 C   0  0  0  0  0  0  0  0  0  0  0  0
  1  2  1  0
  2  3  1  0
  3  4  2  0
  3  5  1  0
  5  6  2  0
  6  7  1  0
  7  8  2  0
  8  9  1  0
  9 10  1  0
 10 11  2  0
 10 12  2  0
 10 13  1  0
 13 14  1  0
 14 15  2  0
 15 16  1  0
 16 17  2  0
 17 18  1  0
 18 19  2  0
 18 20  1  0
 20 21  1  0
 21 22  1  0
  9 23  2  0
 23  5  1  0
 19 14  1  0
 22 17  1  0
M  END
>  <tags>  (328) 
{'openbind_a71ev2a_c1_knitwork_pure', 'fragmenstein_placed'}

>  <distance_score>  (328) 
0.933552

>  <ref_mols>  (328) 
A4445a,A1778a

>  <smiles>  (328) 
CCC(=O)c1cccc(S(=O)(=O)Nc2ccc3c(c2)CCN3)c1

>  <HIPPO Pose ID>  (328) 
284009

>  <inchikey>  (328) 
SXFYONIWVSYCIM-UHFFFAOYSA-N

>  <ref_pdb>  (328) 
A0528b

>  <alias>  (328) 
C72578-P363

>  <energy_score>  (328) 
-27.374984

>  <HIPPO Compound ID>  (328) 
72578

$$$$
C79596-P103
     RDKit          3D

 22 24  0  0  0  0  0  0  0  0999 V2000
   18.6433   -2.0655   19.0786 C   0  0  0  0  0  0  0  0  0  0  0  0
   19.9520   -2.5239   19.7075 C   0  0  1  0  0  0  0  0  0  0  0  0
   20.2965   -1.7092   20.9831 C   0  0  0  0  0  0  0  0  0  0  0  0
   19.2179   -1.6691   22.0696 C   0  0  0  0  0  0  0  0  0  0  0  0
   19.6498   -0.8663   23.2733 C   0  0  0  0  0  0  0  0  0  0  0  0
   20.3873   -1.4700   24.2951 C   0  0  0  0  0  0  0  0  0  0  0  0
   20.7495   -0.7078   25.3943 C   0  0  0  0  0  0  0  0  0  0  0  0
   20.4313    0.5940   25.5445 N   0  0  0  0  0  0  0  0  0  0  0  0
   19.7275    1.1674   24.5413 C   0  0  0  0  0  0  0  0  0  0  0  0
   19.3240    0.4882   23.3996 C   0  0  0  0  0  0  0  0  0  0  0  0
   20.1532   -3.9675   19.8730 N   0  0  0  0  0  0  0  0  0  0  0  0
   19.0399   -4.7907   20.3296 C   0  0  0  0  0  0  0  0  0  0  0  0
   18.0561   -5.1867   19.2585 C   0  0  0  0  0  0  0  0  0  0  0  0
   17.1081   -4.3866   18.8250 N   0  0  0  0  0  0  0  0  0  0  0  0
   16.1681   -5.0797   18.1020 C   0  0  0  0  0  0  0  0  0  0  0  0
   14.9573   -4.5391   17.6482 C   0  0  0  0  0  0  0  0  0  0  0  0
   14.0175   -5.4136   17.1295 C   0  0  0  0  0  0  0  0  0  0  0  0
   12.8519   -4.9325   16.7043 F   0  0  0  0  0  0  0  0  0  0  0  0
   14.2527   -6.7757   17.0129 C   0  0  0  0  0  0  0  0  0  0  0  0
   15.4796   -7.3166   17.3982 C   0  0  0  0  0  0  0  0  0  0  0  0
   16.4223   -6.4461   17.9652 C   0  0  0  0  0  0  0  0  0  0  0  0
   17.9685   -6.7956   18.6567 S   0  0  0  0  0  0  0  0  0  0  0  0
  2  1  1  1
  2  3  1  0
  3  4  1  0
  4  5  1  0
  5  6  2  0
  6  7  1  0
  7  8  2  0
  8  9  1  0
  9 10  2  0
  2 11  1  0
 11 12  1  0
 12 13  1  0
 13 14  2  0
 14 15  1  0
 15 16  2  0
 16 17  1  0
 17 18  1  0
 17 19  2  0
 19 20  1  0
 20 21  2  0
 21 22  1  0
 10  5  1  0
 22 13  1  0
 21 15  1  0
M  END
>  <tags>  (329) 
{'openbind_a71ev2a_c1_knitwork_pure', 'fragmenstein_placed'}

>  <distance_score>  (329) 
0.914464

>  <ref_mols>  (329) 
A0514b,A1105b

>  <smiles>  (329) 
C[C@@H](CCc1ccncc1)NCc1nc2cc(F)ccc2s1

>  <HIPPO Pose ID>  (329) 
284265

>  <inchikey>  (329) 
ZSWDRRMBFQDNKX-UHFFFAOYSA-N

>  <ref_pdb>  (329) 
A4445a

>  <alias>  (329) 
C79596-P103

>  <energy_score>  (329) 
-59.053623

>  <HIPPO Compound ID>  (329) 
50560

$$$$
C79613-P103
     RDKit          3D

 23 25  0  0  0  0  0  0  0  0999 V2000
   19.2434   -5.4640   21.3060 C   0  0  0  0  0  0  0  0  0  0  0  0
   19.3171   -4.8123   19.9193 C   0  0  2  0  0  0  0  0  0  0  0  0
   19.5697   -3.3639   20.1311 N   0  0  0  0  0  0  0  0  0  0  0  0
   19.4462   -2.5056   18.9388 C   0  0  0  0  0  0  0  0  0  0  0  0
   20.1149   -2.9566   17.6508 C   0  0  0  0  0  0  0  0  0  0  0  0
   21.8397   -2.5173   17.4656 S   0  0  0  0  0  0  0  0  0  0  0  0
   22.6128   -3.7479   17.4216 O   0  0  0  0  0  0  0  0  0  0  0  0
   21.9802   -1.5473   16.3837 O   0  0  0  0  0  0  0  0  0  0  0  0
   22.3571   -1.6752   18.9408 C   0  0  0  0  0  0  0  0  0  0  0  0
   22.2781   -0.2873   18.9970 C   0  0  0  0  0  0  0  0  0  0  0  0
   22.7212    0.3370   20.1458 C   0  0  0  0  0  0  0  0  0  0  0  0
   23.2358   -0.3273   21.2049 N   0  0  0  0  0  0  0  0  0  0  0  0
   23.3184   -1.6741   21.1053 C   0  0  0  0  0  0  0  0  0  0  0  0
   22.9026   -2.3931   20.0000 C   0  0  0  0  0  0  0  0  0  0  0  0
   18.0654   -5.1262   19.1208 C   0  0  0  0  0  0  0  0  0  0  0  0
   17.1294   -4.2437   18.8507 N   0  0  0  0  0  0  0  0  0  0  0  0
   16.1060   -4.8209   18.1311 C   0  0  0  0  0  0  0  0  0  0  0  0
   14.9240   -4.1673   17.7478 C   0  0  0  0  0  0  0  0  0  0  0  0
   13.8907   -4.9112   17.1861 C   0  0  0  0  0  0  0  0  0  0  0  0
   14.0275   -6.2820   16.9896 C   0  0  0  0  0  0  0  0  0  0  0  0
   15.2164   -6.9425   17.3138 C   0  0  0  0  0  0  0  0  0  0  0  0
   16.2480   -6.1885   17.8910 C   0  0  0  0  0  0  0  0  0  0  0  0
   17.7977   -6.6932   18.4580 S   0  0  0  0  0  0  0  0  0  0  0  0
  2  1  1  1
  2  3  1  0
  3  4  1  0
  4  5  1  0
  5  6  1  0
  6  7  2  0
  6  8  2  0
  6  9  1  0
  9 10  2  0
 10 11  1  0
 11 12  2  0
 12 13  1  0
 13 14  2  0
  2 15  1  0
 15 16  2  0
 16 17  1  0
 17 18  2  0
 18 19  1  0
 19 20  2  0
 20 21  1  0
 21 22  2  0
 22 23  1  0
 14  9  1  0
 23 15  1  0
 22 17  1  0
M  END
>  <tags>  (330) 
{'openbind_a71ev2a_c1_knitwork_pure', 'fragmenstein_placed'}

>  <distance_score>  (330) 
0.83643

>  <ref_mols>  (330) 
A0514b,A1105b

>  <smiles>  (330) 
C[C@H](NCCS(=O)(=O)c1ccncc1)c1nc2ccccc2s1

>  <HIPPO Pose ID>  (330) 
284277

>  <inchikey>  (330) 
YKKKROMSHYNZCM-UHFFFAOYSA-N

>  <ref_pdb>  (330) 
A4445a

>  <alias>  (330) 
C79613-P103

>  <energy_score>  (330) 
-55.662454

>  <HIPPO Compound ID>  (330) 
69028

$$$$
C117674-P37
     RDKit          3D

 15 15  0  0  0  0  0  0  0  0999 V2000
    6.5257   11.0847   26.1711 C   0  0  0  0  0  0  0  0  0  0  0  0
    7.6396   11.0062   25.2610 N   0  0  0  0  0  0  0  0  0  0  0  0
    8.4519   12.0287   24.8797 C   0  0  0  0  0  0  0  0  0  0  0  0
    9.3534   11.4850   24.0019 C   0  0  0  0  0  0  0  0  0  0  0  0
   10.4009   12.1329   23.4187 N   0  0  0  0  0  0  0  0  0  0  0  0
   11.0446   13.5112   23.7461 C   0  0  0  0  0  0  0  0  0  0  0  0
   10.8233   14.2636   24.6138 O   0  0  0  0  0  0  0  0  0  0  0  0
   12.1460   13.7228   22.7134 C   0  0  0  0  0  0  0  0  0  0  0  0
   12.4099   15.1481   22.5701 C   0  0  0  0  0  0  0  0  0  0  0  0
   12.5575   16.2918   22.4567 N   0  0  0  0  0  0  0  0  0  0  0  0
    8.9884   10.1277   23.8867 C   0  0  0  0  0  0  0  0  0  0  0  0
    9.6657    9.1131   23.0448 C   0  0  0  0  0  0  0  0  0  0  0  0
   10.8187    8.7492   23.6323 F   0  0  0  0  0  0  0  0  0  0  0  0
   10.0366    9.6663   21.8598 F   0  0  0  0  0  0  0  0  0  0  0  0
    7.9743    9.8270   24.7172 N   0  0  0  0  0  0  0  0  0  0  0  0
  1  2  1  0
  2  3  1  0
  3  4  2  0
  4  5  1  0
  5  6  1  0
  6  7  2  0
  6  8  1  0
  8  9  1  0
  9 10  3  0
  4 11  1  0
 11 12  1  0
 12 13  1  0
 12 14  1  0
 11 15  2  0
 15  2  1  0
M  END
>  <tags>  (331) 
{'openbind_a71ev2a_c1_knitwork_pure', 'fragmenstein_placed'}

>  <distance_score>  (331) 
0.909356

>  <ref_mols>  (331) 
A0556a,A0310a

>  <smiles>  (331) 
Cn1cc(NC(=O)CC#N)c(C(F)F)n1

>  <HIPPO Pose ID>  (331) 
284834

>  <inchikey>  (331) 
OCFILOCKSPCUCJ-UHFFFAOYSA-N

>  <ref_pdb>  (331) 
A4445a

>  <alias>  (331) 
C117674-P37

>  <energy_score>  (331) 
-3.668578

>  <HIPPO Compound ID>  (331) 
51887

$$$$
C54664-P439
     RDKit          3D

 22 25  0  0  0  0  0  0  0  0999 V2000
   21.2496   28.8400   20.8051 O   0  0  0  0  0  0  0  0  0  0  0  0
   21.2111   28.1747   19.7832 C   0  0  0  0  0  0  0  0  0  0  0  0
   21.2677   26.6775   19.7180 C   0  0  0  0  0  0  0  0  0  0  0  0
   20.9118   26.3689   18.2620 C   0  0  2  0  0  0  0  0  0  0  0  0
   21.6790   25.3026   17.5994 N   0  0  0  0  0  0  0  0  0  0  0  0
   23.1192   25.5312   17.4497 C   0  0  0  0  0  0  0  0  0  0  0  0
   23.9890   24.5685   18.2545 C   0  0  0  0  0  0  0  0  0  0  0  0
   23.6773   23.0944   17.9411 C   0  0  0  0  0  0  0  0  0  0  0  0
   24.0220   22.2679   19.0998 N   0  0  0  0  0  0  0  0  0  0  0  0
   23.0702   21.9137   20.0001 N   0  0  0  0  0  0  0  0  0  0  0  0
   23.7678   21.3094   20.9645 C   0  0  0  0  0  0  0  0  0  0  0  0
   25.1550   21.2827   20.7096 C   0  0  0  0  0  0  0  0  0  0  0  0
   26.2957   20.8012   21.3763 C   0  0  0  0  0  0  0  0  0  0  0  0
   27.5500   20.9658   20.7759 C   0  0  0  0  0  0  0  0  0  0  0  0
   27.6702   21.5978   19.5393 C   0  0  0  0  0  0  0  0  0  0  0  0
   26.5471   22.0830   18.8629 C   0  0  0  0  0  0  0  0  0  0  0  0
   25.2980   21.9100   19.4761 C   0  0  0  0  0  0  0  0  0  0  0  0
   22.2323   22.9095   17.4684 C   0  0  0  0  0  0  0  0  0  0  0  0
   21.3172   23.9667   18.0774 C   0  0  0  0  0  0  0  0  0  0  0  0
   21.0346   27.7212   17.5670 C   0  0  0  0  0  0  0  0  0  0  0  0
   20.9974   27.9499   16.3687 O   0  0  0  0  0  0  0  0  0  0  0  0
   21.1504   28.6774   18.5265 N   0  0  0  0  0  0  0  0  0  0  0  0
  1  2  2  0
  2  3  1  0
  3  4  1  0
  4  5  1  6
  5  6  1  0
  6  7  1  0
  7  8  1  0
  8  9  1  0
  9 10  1  0
 10 11  2  0
 11 12  1  0
 12 13  2  0
 13 14  1  0
 14 15  2  0
 15 16  1  0
 16 17  2  0
  8 18  1  0
 18 19  1  0
  4 20  1  0
 20 21  2  0
 20 22  1  0
 22  2  1  0
 19  5  1  0
 17  9  1  0
 17 12  1  0
M  END
>  <tags>  (332) 
{'openbind_a71ev2a_c1_knitwork_pure', 'fragmenstein_placed'}

>  <distance_score>  (332) 
0.522691

>  <ref_mols>  (332) 
A3181b,A4706a

>  <smiles>  (332) 
O=C1C[C@H](N2CCC(n3ncc4ccccc43)CC2)C(=O)N1

>  <HIPPO Pose ID>  (332) 
284928

>  <inchikey>  (332) 
JNOYHGAZDBVHEM-UHFFFAOYSA-N

>  <ref_pdb>  (332) 
A4445a

>  <alias>  (332) 
C54664-P439

>  <energy_score>  (332) 
-38.073502

>  <HIPPO Compound ID>  (332) 
3758

$$$$
C52382-P235
     RDKit          3D

 21 23  0  0  0  0  0  0  0  0999 V2000
    8.9345   14.2959   21.4915 O   0  0  0  0  0  0  0  0  0  0  0  0
    9.4368   14.6769   22.7900 S   0  0  0  0  0  0  0  0  0  0  0  0
    9.1258   15.9558   23.3785 O   0  0  0  0  0  0  0  0  0  0  0  0
   11.2079   14.3606   22.9372 C   0  0  0  0  0  0  0  0  0  0  0  0
   12.0309   15.6451   22.8188 C   0  0  0  0  0  0  0  0  0  0  0  0
   12.2966   16.1806   21.4051 C   0  0  0  0  0  0  0  0  0  0  0  0
   11.1539   16.0118   20.4664 C   0  0  0  0  0  0  0  0  0  0  0  0
   11.1604   16.0427   18.9520 C   0  0  0  0  0  0  0  0  0  0  0  0
   11.1961   14.7473   19.6556 C   0  0  0  0  0  0  0  0  0  0  0  0
    8.7746   13.4736   23.7316 N   0  0  0  0  0  0  0  0  0  0  0  0
    8.1484   13.7210   25.0443 C   0  0  0  0  0  0  0  0  0  0  0  0
    7.6185   12.3703   25.5711 C   0  0  0  0  0  0  0  0  0  0  0  0
    8.0437   11.1411   25.0372 C   0  0  0  0  0  0  0  0  0  0  0  0
    7.3901    9.9610   25.3768 C   0  0  0  0  0  0  0  0  0  0  0  0
    6.3547   10.0246   26.2900 C   0  0  0  0  0  0  0  0  0  0  0  0
    5.9736   11.1561   26.9064 N   0  0  0  0  0  0  0  0  0  0  0  0
    6.5967   12.2923   26.5209 C   0  0  0  0  0  0  0  0  0  0  0  0
    9.1384   14.4254   25.9896 C   0  0  0  0  0  0  0  0  0  0  0  0
    8.2664   15.1778   26.9772 C   0  0  0  0  0  0  0  0  0  0  0  0
    7.1181   15.6918   26.1191 C   0  0  0  0  0  0  0  0  0  0  0  0
    6.9721   14.7269   24.9333 C   0  0  0  0  0  0  0  0  0  0  0  0
  1  2  2  0
  2  3  2  0
  2  4  1  0
  4  5  1  0
  5  6  1  0
  6  7  1  0
  7  8  1  0
  8  9  1  0
  2 10  1  0
 10 11  1  0
 11 12  1  0
 12 13  2  0
 13 14  1  0
 14 15  2  0
 15 16  1  0
 16 17  2  0
 11 18  1  0
 18 19  1  0
 19 20  1  0
 20 21  1  0
  9  7  1  0
 21 11  1  0
 17 12  1  0
M  END
>  <tags>  (333) 
{'openbind_a71ev2a_c1_knitwork_pure', 'fragmenstein_placed'}

>  <distance_score>  (333) 
0.977045

>  <ref_mols>  (333) 
A3897a,A0719a

>  <smiles>  (333) 
O=S(=O)(CCCC1CC1)NC1(c2cccnc2)CCCC1

>  <HIPPO Pose ID>  (333) 
285803

>  <inchikey>  (333) 
ILSBGNWDUMTPAG-UHFFFAOYSA-N

>  <ref_pdb>  (333) 
A4445a

>  <alias>  (333) 
C52382-P235

>  <energy_score>  (333) 
-42.590699

>  <HIPPO Compound ID>  (333) 
119126

$$$$
C59844-P404
     RDKit          3D

 22 24  0  0  0  0  0  0  0  0999 V2000
   25.5637   12.0773   -0.8787 O   0  0  0  0  0  0  0  0  0  0  0  0
   24.7186   12.5881   -0.1502 C   0  0  0  0  0  0  0  0  0  0  0  0
   23.5028   13.3347   -0.6739 C   0  0  0  0  0  0  0  0  0  0  0  0
   22.9198   14.3579    0.3042 C   0  0  0  0  0  0  0  0  0  0  0  0
   22.7837   13.7325    1.6907 C   0  0  2  0  0  0  0  0  0  0  0  0
   22.1994   14.6624    2.7472 C   0  0  0  0  0  0  0  0  0  0  0  0
   20.7914   14.9473    2.6149 N   0  0  0  0  0  0  0  0  0  0  0  0
   19.5891   13.9962    2.3960 C   0  0  0  0  0  0  0  0  0  0  0  0
   19.5600   12.8433    2.2118 O   0  0  0  0  0  0  0  0  0  0  0  0
   18.2887   14.7830    2.5459 C   0  0  0  0  0  0  0  0  0  0  0  0
   18.2012   16.0677    1.7363 C   0  0  0  0  0  0  0  0  0  0  0  0
   18.3089   17.2438    2.5728 N   0  0  0  0  0  0  0  0  0  0  0  0
   17.3855   18.2170    2.8001 C   0  0  0  0  0  0  0  0  0  0  0  0
   17.9910   19.0197    3.7394 C   0  0  0  0  0  0  0  0  0  0  0  0
   17.4241   20.3051    4.3893 C   0  0  0  0  0  0  0  0  0  0  0  0
   16.6880   21.2888    3.4472 C   0  0  0  0  0  0  0  0  0  0  0  0
   15.7022   21.5418    4.6076 C   0  0  0  0  0  0  0  0  0  0  0  0
   16.0788   20.1421    5.1373 C   0  0  0  0  0  0  0  0  0  0  0  0
   19.2186   18.5102    4.0539 N   0  0  0  0  0  0  0  0  0  0  0  0
   19.4088   17.4243    3.3212 N   0  0  0  0  0  0  0  0  0  0  0  0
   24.1699   13.2847    2.1464 C   0  0  0  0  0  0  0  0  0  0  0  0
   24.8013   12.4105    1.1952 N   0  0  0  0  0  0  0  0  0  0  0  0
  1  2  2  0
  2  3  1  0
  3  4  1  0
  4  5  1  0
  5  6  1  1
  6  7  1  0
  7  8  1  0
  8  9  2  0
  8 10  1  0
 10 11  1  0
 11 12  1  0
 12 13  1  0
 13 14  2  0
 14 15  1  0
 15 16  1  0
 16 17  1  0
 17 18  1  0
 14 19  1  0
 19 20  2  0
  5 21  1  0
 21 22  1  0
 22  2  1  0
 20 12  1  0
 18 15  1  0
M  END
>  <tags>  (334) 
{'openbind_a71ev2a_c1_knitwork_pure', 'fragmenstein_placed'}

>  <distance_score>  (334) 
0.890184

>  <ref_mols>  (334) 
A0239a,A4563a

>  <smiles>  (334) 
O=C1CC[C@H](CNC(=O)CCn2cc(C3CCC3)nn2)CN1

>  <HIPPO Pose ID>  (334) 
286897

>  <inchikey>  (334) 
OHLKROUFFQSMCC-UHFFFAOYSA-N

>  <ref_pdb>  (334) 
A4445a

>  <alias>  (334) 
C59844-P404

>  <energy_score>  (334) 
-15.523951

>  <HIPPO Compound ID>  (334) 
59009

$$$$
C59845-P404
     RDKit          3D

 22 24  0  0  0  0  0  0  0  0999 V2000
   17.9786   16.0620    2.7997 C   0  0  0  0  0  0  0  0  0  0  0  0
   18.2493   14.7958    1.9814 C   0  0  1  0  0  0  0  0  0  0  0  0
   19.5193   14.0530    2.4640 C   0  0  0  0  0  0  0  0  0  0  0  0
   19.4220   12.9734    2.9730 O   0  0  0  0  0  0  0  0  0  0  0  0
   20.6871   14.8588    2.1772 N   0  0  0  0  0  0  0  0  0  0  0  0
   22.0822   14.6546    2.5001 C   0  0  0  0  0  0  0  0  0  0  0  0
   22.7890   13.7650    1.4796 C   0  0  1  0  0  0  0  0  0  0  0  0
   22.9897   14.4489    0.1248 C   0  0  0  0  0  0  0  0  0  0  0  0
   23.6322   13.4760   -0.8600 C   0  0  0  0  0  0  0  0  0  0  0  0
   24.8260   12.7234   -0.3064 C   0  0  0  0  0  0  0  0  0  0  0  0
   25.6694   12.2073   -1.0347 O   0  0  0  0  0  0  0  0  0  0  0  0
   24.8838   12.5463    1.0439 N   0  0  0  0  0  0  0  0  0  0  0  0
   24.1622   13.3497    2.0017 C   0  0  0  0  0  0  0  0  0  0  0  0
   17.0943   13.9029    1.9301 N   0  0  0  0  0  0  0  0  0  0  0  0
   16.7797   13.0349    0.9235 C   0  0  0  0  0  0  0  0  0  0  0  0
   15.5275   12.5840    1.2610 C   0  0  0  0  0  0  0  0  0  0  0  0
   14.6971   11.5655    0.4464 C   0  0  0  0  0  0  0  0  0  0  0  0
   14.5726   11.8689   -1.0697 C   0  0  0  0  0  0  0  0  0  0  0  0
   13.1205   11.3587   -0.9753 C   0  0  0  0  0  0  0  0  0  0  0  0
   13.1597   11.7586    0.5135 C   0  0  0  0  0  0  0  0  0  0  0  0
   15.1264   13.1582    2.4344 N   0  0  0  0  0  0  0  0  0  0  0  0
   16.0916   13.9755    2.8364 N   0  0  0  0  0  0  0  0  0  0  0  0
  2  1  1  1
  2  3  1  0
  3  4  2  0
  3  5  1  0
  5  6  1  0
  7  6  1  1
  7  8  1  0
  8  9  1  0
  9 10  1  0
 10 11  2  0
 10 12  1  0
 12 13  1  0
  2 14  1  0
 14 15  1  0
 15 16  2  0
 16 17  1  0
 17 18  1  0
 18 19  1  0
 19 20  1  0
 16 21  1  0
 21 22  2  0
 13  7  1  0
 22 14  1  0
 20 17  1  0
M  END
>  <tags>  (335) 
{'openbind_a71ev2a_c1_knitwork_pure', 'fragmenstein_placed'}

>  <distance_score>  (335) 
0.963319

>  <ref_mols>  (335) 
A0239a,A4563a

>  <smiles>  (335) 
C[C@@H](C(=O)NC[C@H]1CCC(=O)NC1)n1cc(C2CCC2)nn1

>  <HIPPO Pose ID>  (335) 
286899

>  <inchikey>  (335) 
GYQUKRQTKVBWNS-UHFFFAOYSA-N

>  <ref_pdb>  (335) 
A4445a

>  <alias>  (335) 
C59845-P404

>  <energy_score>  (335) 
-36.831272

>  <HIPPO Compound ID>  (335) 
99744

$$$$
C55769-P615
     RDKit          3D

 17 19  0  0  0  0  0  0  0  0999 V2000
   -0.7611   13.0626   20.9203 C   0  0  0  0  0  0  0  0  0  0  0  0
   -0.1027   13.3859   22.0366 N   0  0  0  0  0  0  0  0  0  0  0  0
    0.8318   14.2626   21.6042 N   0  0  0  0  0  0  0  0  0  0  0  0
    1.7057   14.9462   22.5446 C   0  0  1  0  0  0  0  0  0  0  0  0
    0.9382   15.6016   23.7040 C   0  0  0  0  0  0  0  0  0  0  0  0
    1.9051   16.1997   24.7216 C   0  0  0  0  0  0  0  0  0  0  0  0
    2.9547   15.1808   25.1377 C   0  0  0  0  0  0  0  0  0  0  0  0
    3.6602   14.7229   23.9876 O   0  0  0  0  0  0  0  0  0  0  0  0
    2.7957   14.0214   23.0789 C   0  0  0  0  0  0  0  0  0  0  0  0
    0.7837   14.4755   20.2542 C   0  0  0  0  0  0  0  0  0  0  0  0
   -0.2858   13.7469   19.7754 C   0  0  0  0  0  0  0  0  0  0  0  0
   -0.8786   13.7073   18.3961 C   0  0  1  0  0  0  0  0  0  0  0  0
   -1.1249   15.1086   17.8124 C   0  0  0  0  0  0  0  0  0  0  0  0
   -1.2144   15.1087   16.2853 C   0  0  0  0  0  0  0  0  0  0  0  0
   -1.6934   13.7668   15.7481 C   0  0  0  0  0  0  0  0  0  0  0  0
   -0.8013   12.6667   16.1094 N   0  0  0  0  0  0  0  0  0  0  0  0
   -0.0980   12.8466   17.3924 C   0  0  0  0  0  0  0  0  0  0  0  0
  1  2  2  0
  2  3  1  0
  4  3  1  1
  4  5  1  0
  5  6  1  0
  6  7  1  0
  7  8  1  0
  8  9  1  0
  3 10  1  0
 10 11  2  0
 12 11  1  1
 12 13  1  0
 13 14  1  0
 14 15  1  0
 15 16  1  0
 16 17  1  0
 11  1  1  0
 17 12  1  0
  9  4  1  0
M  END
>  <tags>  (336) 
{'openbind_a71ev2a_c1_knitwork_pure', 'fragmenstein_placed'}

>  <distance_score>  (336) 
0.814224

>  <ref_mols>  (336) 
A0473a,A5424a

>  <smiles>  (336) 
c1nn([C@H]2CCCOC2)cc1[C@H]1CCCNC1

>  <HIPPO Pose ID>  (336) 
288181

>  <inchikey>  (336) 
YMLRBUYADBIVPV-UHFFFAOYSA-N

>  <ref_pdb>  (336) 
A4445a

>  <alias>  (336) 
C55769-P615

>  <energy_score>  (336) 
-34.146919

>  <HIPPO Compound ID>  (336) 
50959

$$$$
C45903-P257
     RDKit          3D

 21 23  0  0  0  0  0  0  0  0999 V2000
   25.5553   18.1225   25.8156 O   0  0  0  0  0  0  0  0  0  0  0  0
   24.3881   18.2905   25.0060 C   0  0  1  0  0  0  0  0  0  0  0  0
   24.7662   18.1975   23.5291 C   0  0  0  0  0  0  0  0  0  0  0  0
   25.9101   19.1099   23.1187 C   0  0  0  0  0  0  0  0  0  0  0  0
   25.9533   19.2477   21.6460 N   0  0  0  0  0  0  0  0  0  0  0  0
   26.5022   20.4992   21.2753 C   0  0  0  0  0  0  0  0  0  0  0  0
   25.8488   21.6200   21.6931 C   0  0  0  0  0  0  0  0  0  0  0  0
   26.6060   22.7400   21.6621 C   0  0  0  0  0  0  0  0  0  0  0  0
   27.8457   22.8243   21.1701 N   0  0  0  0  0  0  0  0  0  0  0  0
   28.3848   21.7053   20.6770 C   0  0  0  0  0  0  0  0  0  0  0  0
   29.7397   21.7564   20.3001 N   0  0  0  0  0  0  0  0  0  0  0  0
   30.0965   20.8715   19.2080 C   0  0  0  0  0  0  0  0  0  0  0  0
   31.5871   20.9054   18.8991 C   0  0  0  0  0  0  0  0  0  0  0  0
   32.1046   22.3269   18.7585 C   0  0  0  0  0  0  0  0  0  0  0  0
   31.8105   23.0958   20.0347 C   0  0  0  0  0  0  0  0  0  0  0  0
   30.3223   23.0979   20.3662 C   0  0  0  0  0  0  0  0  0  0  0  0
   27.7006   20.5406   20.6543 N   0  0  0  0  0  0  0  0  0  0  0  0
   23.4015   17.1755   25.3472 C   0  0  0  0  0  0  0  0  0  0  0  0
   21.9933   17.2425   24.6941 C   0  0  0  0  0  0  0  0  0  0  0  0
   21.4298   16.6828   26.0144 C   0  0  0  0  0  0  0  0  0  0  0  0
   22.6723   17.2702   26.7145 C   0  0  0  0  0  0  0  0  0  0  0  0
  2  1  1  1
  2  3  1  0
  3  4  1  0
  4  5  1  0
  5  6  1  0
  6  7  2  0
  7  8  1  0
  8  9  2  0
  9 10  1  0
 10 11  1  0
 11 12  1  0
 12 13  1  0
 13 14  1  0
 14 15  1  0
 15 16  1  0
 10 17  2  0
  2 18  1  0
 18 19  1  0
 19 20  1  0
 20 21  1  0
 17  6  1  0
 21 18  1  0
 16 11  1  0
M  END
>  <tags>  (337) 
{'openbind_a71ev2a_c1_knitwork_pure', 'fragmenstein_placed'}

>  <distance_score>  (337) 
0.568273

>  <ref_mols>  (337) 
A3986b,A1146a

>  <smiles>  (337) 
O[C@@H](CCNc1ccnc(N2CCCCC2)n1)C1CCC1

>  <HIPPO Pose ID>  (337) 
288327

>  <inchikey>  (337) 
OJGYGWNQLWVYCV-UHFFFAOYSA-N

>  <ref_pdb>  (337) 
A4445a

>  <alias>  (337) 
C45903-P257

>  <energy_score>  (337) 
-40.984688

>  <HIPPO Compound ID>  (337) 
45686

$$$$
C118482-P100
     RDKit          3D

 23 24  0  0  0  0  0  0  0  0999 V2000
    4.9279   10.2996    1.6855 C   0  0  0  0  0  0  0  0  0  0  0  0
    3.8216   11.3533    1.7805 C   0  0  2  0  0  0  0  0  0  0  0  0
    4.2011   12.6657    1.0844 C   0  0  0  0  0  0  0  0  0  0  0  0
    5.3492   13.3242    1.6498 N   0  0  0  0  0  0  0  0  0  0  0  0
    6.8604   13.1767    1.3202 C   0  0  0  0  0  0  0  0  0  0  0  0
    7.3963   12.5563    0.4885 O   0  0  0  0  0  0  0  0  0  0  0  0
    7.6302   14.0939    2.2708 C   0  0  0  0  0  0  0  0  0  0  0  0
    7.4354   13.7460    3.7009 C   0  0  0  0  0  0  0  0  0  0  0  0
    7.1080   14.6102    4.7683 C   0  0  0  0  0  0  0  0  0  0  0  0
    7.0021   13.9636    5.9301 N   0  0  0  0  0  0  0  0  0  0  0  0
    7.2747   12.6381    5.6318 O   0  0  0  0  0  0  0  0  0  0  0  0
    7.5420   12.5176    4.3102 C   0  0  0  0  0  0  0  0  0  0  0  0
    3.3990   11.5781    3.2487 C   0  0  0  0  0  0  0  0  0  0  0  0
    2.6133   10.4792    3.7698 N   0  0  0  0  0  0  0  0  0  0  0  0
    1.1002   10.1550    3.6105 C   0  0  0  0  0  0  0  0  0  0  0  0
    0.2442   10.7666    3.0994 O   0  0  0  0  0  0  0  0  0  0  0  0
    0.8560    8.7326    4.1775 C   0  0  2  0  0  0  0  0  0  0  0  0
   -0.5580    8.2488    3.8479 C   0  0  0  0  0  0  0  0  0  0  0  0
   -0.7513    7.1888    4.8111 N   0  0  0  0  0  0  0  0  0  0  0  0
   -1.9344    6.3660    4.8306 C   0  0  0  0  0  0  0  0  0  0  0  0
    0.0991    7.3657    5.8982 C   0  0  0  0  0  0  0  0  0  0  0  0
    0.1392    6.6655    6.8975 O   0  0  0  0  0  0  0  0  0  0  0  0
    0.9450    8.4447    5.6009 N   0  0  0  0  0  0  0  0  0  0  0  0
  2  1  1  1
  2  3  1  0
  3  4  1  0
  4  5  1  0
  5  6  2  0
  5  7  1  0
  7  8  1  0
  8  9  1  0
  9 10  2  0
 10 11  1  0
 11 12  1  0
  2 13  1  0
 13 14  1  0
 14 15  1  0
 15 16  2  0
 17 15  1  1
 17 18  1  0
 18 19  1  0
 19 20  1  0
 19 21  1  0
 21 22  2  0
 21 23  1  0
 12  8  2  0
 23 17  1  0
M  END
>  <tags>  (338) 
{'openbind_a71ev2a_c1_knitwork_pure', 'fragmenstein_placed'}

>  <distance_score>  (338) 
0.946158

>  <ref_mols>  (338) 
A0541a,A1081b

>  <smiles>  (338) 
C[C@H](CNC(=O)Cc1cnoc1)CNC(=O)[C@@H]1CN(C)C(=O)N1

>  <HIPPO Pose ID>  (338) 
288673

>  <inchikey>  (338) 
YFUCQHARYKGGDT-UHFFFAOYSA-N

>  <ref_pdb>  (338) 
A4445a

>  <alias>  (338) 
C118482-P100

>  <energy_score>  (338) 
-27.940242

>  <HIPPO Compound ID>  (338) 
46510

$$$$
C118483-P100
     RDKit          3D

 23 24  0  0  0  0  0  0  0  0999 V2000
    2.6125   10.7558    0.7266 C   0  0  0  0  0  0  0  0  0  0  0  0
    3.5692   11.5271    1.6454 C   0  0  1  0  0  0  0  0  0  0  0  0
    4.0081   12.8179    0.9420 C   0  0  0  0  0  0  0  0  0  0  0  0
    5.1906   13.4016    1.5214 N   0  0  0  0  0  0  0  0  0  0  0  0
    6.6894   13.0413    1.3317 C   0  0  0  0  0  0  0  0  0  0  0  0
    7.1971   12.2681    0.6190 O   0  0  0  0  0  0  0  0  0  0  0  0
    7.5002   13.9775    2.2264 C   0  0  0  0  0  0  0  0  0  0  0  0
    7.3479   13.6690    3.6689 C   0  0  0  0  0  0  0  0  0  0  0  0
    7.0819   14.5656    4.7267 C   0  0  0  0  0  0  0  0  0  0  0  0
    7.0205   13.9513    5.9090 N   0  0  0  0  0  0  0  0  0  0  0  0
    7.2591   12.6142    5.6336 O   0  0  0  0  0  0  0  0  0  0  0  0
    7.4596   12.4545    4.3045 C   0  0  0  0  0  0  0  0  0  0  0  0
    2.8892   11.8442    2.9962 C   0  0  0  0  0  0  0  0  0  0  0  0
    2.3722   10.6759    3.6741 N   0  0  0  0  0  0  0  0  0  0  0  0
    0.9903   10.4342    4.3730 C   0  0  0  0  0  0  0  0  0  0  0  0
    0.0412   11.1187    4.4341 O   0  0  0  0  0  0  0  0  0  0  0  0
    1.0189    8.9916    4.9362 C   0  0  2  0  0  0  0  0  0  0  0  0
    0.4659    8.0608    3.8514 C   0  0  0  0  0  0  0  0  0  0  0  0
   -0.0733    6.9556    4.5981 N   0  0  0  0  0  0  0  0  0  0  0  0
   -0.1875    7.2733    5.9404 C   0  0  0  0  0  0  0  0  0  0  0  0
   -0.5206    6.4783    6.8035 O   0  0  0  0  0  0  0  0  0  0  0  0
    0.2006    8.6064    6.0858 N   0  0  0  0  0  0  0  0  0  0  0  0
    0.3515    9.2170    7.3816 C   0  0  0  0  0  0  0  0  0  0  0  0
  2  1  1  6
  2  3  1  0
  3  4  1  0
  4  5  1  0
  5  6  2  0
  5  7  1  0
  7  8  1  0
  8  9  1  0
  9 10  2  0
 10 11  1  0
 11 12  1  0
  2 13  1  0
 13 14  1  0
 14 15  1  0
 15 16  2  0
 17 15  1  6
 17 18  1  0
 18 19  1  0
 19 20  1  0
 20 21  2  0
 20 22  1  0
 22 23  1  0
 12  8  2  0
 22 17  1  0
M  END
>  <tags>  (339) 
{'openbind_a71ev2a_c1_knitwork_pure', 'fragmenstein_placed'}

>  <distance_score>  (339) 
0.996968

>  <ref_mols>  (339) 
A0541a,A1081b

>  <smiles>  (339) 
C[C@@H](CNC(=O)Cc1cnoc1)CNC(=O)[C@@H]1CNC(=O)N1C

>  <HIPPO Pose ID>  (339) 
288675

>  <inchikey>  (339) 
ACSYWMFGDGOESG-UHFFFAOYSA-N

>  <ref_pdb>  (339) 
A4445a

>  <alias>  (339) 
C118483-P100

>  <energy_score>  (339) 
-16.669464

>  <HIPPO Compound ID>  (339) 
17664

$$$$
C118718-P174
     RDKit          3D

 24 26  0  0  0  0  0  0  0  0999 V2000
   14.2743   17.2003   19.4801 C   0  0  0  0  0  0  0  0  0  0  0  0
   13.5639   15.9738   19.6418 O   0  0  0  0  0  0  0  0  0  0  0  0
   13.1998   15.6313   20.9110 C   0  0  0  0  0  0  0  0  0  0  0  0
   13.6295   16.1492   21.9310 O   0  0  0  0  0  0  0  0  0  0  0  0
   12.0865   14.5670   20.8567 C   0  0  2  0  0  0  0  0  0  0  0  0
   11.0853   14.9944   19.7713 C   0  0  0  0  0  0  0  0  0  0  0  0
   10.5074   16.3156   19.9464 N   0  0  0  0  0  0  0  0  0  0  0  0
    9.8083   16.9929   18.9971 C   0  0  0  0  0  0  0  0  0  0  0  0
    9.3515   18.1287   19.6207 C   0  0  0  0  0  0  0  0  0  0  0  0
    9.8321   18.2035   20.8922 N   0  0  0  0  0  0  0  0  0  0  0  0
   10.5245   17.1075   21.0556 C   0  0  0  0  0  0  0  0  0  0  0  0
   11.3414   14.3572   22.1104 N   0  0  0  0  0  0  0  0  0  0  0  0
   11.6940   13.5138   23.3613 C   0  0  0  0  0  0  0  0  0  0  0  0
   12.6633   12.9175   23.6232 O   0  0  0  0  0  0  0  0  0  0  0  0
   10.4838   13.6193   24.3020 C   0  0  0  0  0  0  0  0  0  0  0  0
    9.5208   12.4656   24.2430 C   0  0  0  0  0  0  0  0  0  0  0  0
    9.5718   11.3210   23.4720 C   0  0  0  0  0  0  0  0  0  0  0  0
    8.5807   10.4655   23.8774 N   0  0  0  0  0  0  0  0  0  0  0  0
    7.8199   11.0615   24.8548 C   0  0  0  0  0  0  0  0  0  0  0  0
    6.7243   10.5733   25.5766 C   0  0  0  0  0  0  0  0  0  0  0  0
    6.1084   11.4388   26.4859 C   0  0  0  0  0  0  0  0  0  0  0  0
    6.5677   12.7413   26.6605 C   0  0  0  0  0  0  0  0  0  0  0  0
    7.6801   13.2049   25.9502 C   0  0  0  0  0  0  0  0  0  0  0  0
    8.3347   12.3452   25.0431 C   0  0  0  0  0  0  0  0  0  0  0  0
  1  2  1  0
  2  3  1  0
  3  4  2  0
  3  5  1  0
  5  6  1  6
  6  7  1  0
  7  8  1  0
  8  9  2  0
  9 10  1  0
 10 11  2  0
  5 12  1  0
 12 13  1  0
 13 14  2  0
 13 15  1  0
 15 16  1  0
 16 17  2  0
 17 18  1  0
 18 19  1  0
 19 20  2  0
 20 21  1  0
 21 22  2  0
 22 23  1  0
 23 24  2  0
 11  7  1  0
 24 16  1  0
 24 19  1  0
M  END
>  <tags>  (340) 
{'openbind_a71ev2a_c1_knitwork_pure', 'fragmenstein_placed'}

>  <distance_score>  (340) 
0.992695

>  <ref_mols>  (340) 
A3568a,A3371a

>  <smiles>  (340) 
COC(=O)[C@H](Cn1ccnc1)NC(=O)Cc1c[nH]c2ccccc12

>  <HIPPO Pose ID>  (340) 
289709

>  <inchikey>  (340) 
VFKNZSCHZMQTED-UHFFFAOYSA-N

>  <ref_pdb>  (340) 
A4445a

>  <alias>  (340) 
C118718-P174

>  <energy_score>  (340) 
-7.985707

>  <HIPPO Compound ID>  (340) 
18489

$$$$
C54664-P180
     RDKit          3D

 22 25  0  0  0  0  0  0  0  0999 V2000
   21.8564   29.3362   14.2303 O   0  0  0  0  0  0  0  0  0  0  0  0
   22.5661   28.3583   14.4007 C   0  0  0  0  0  0  0  0  0  0  0  0
   22.0846   27.0014   14.8193 C   0  0  0  0  0  0  0  0  0  0  0  0
   23.3311   26.1203   14.7028 C   0  0  2  0  0  0  0  0  0  0  0  0
   23.5699   25.1548   15.7881 N   0  0  0  0  0  0  0  0  0  0  0  0
   23.7510   25.7088   17.1242 C   0  0  0  0  0  0  0  0  0  0  0  0
   24.4263   24.6619   18.0159 C   0  0  0  0  0  0  0  0  0  0  0  0
   23.9729   23.2203   17.7003 C   0  0  0  0  0  0  0  0  0  0  0  0
   24.1103   22.3700   18.8774 N   0  0  0  0  0  0  0  0  0  0  0  0
   23.0376   22.0538   19.6453 N   0  0  0  0  0  0  0  0  0  0  0  0
   23.5806   21.3968   20.6746 C   0  0  0  0  0  0  0  0  0  0  0  0
   24.9852   21.2867   20.5852 C   0  0  0  0  0  0  0  0  0  0  0  0
   26.0121   20.7277   21.3678 C   0  0  0  0  0  0  0  0  0  0  0  0
   27.3359   20.8273   20.9194 C   0  0  0  0  0  0  0  0  0  0  0  0
   27.6360   21.4648   19.7169 C   0  0  0  0  0  0  0  0  0  0  0  0
   26.6284   22.0250   18.9278 C   0  0  0  0  0  0  0  0  0  0  0  0
   25.3086   21.9220   19.3917 C   0  0  0  0  0  0  0  0  0  0  0  0
   22.5773   23.2454   17.0787 C   0  0  0  0  0  0  0  0  0  0  0  0
   22.6097   24.0429   15.7680 C   0  0  0  0  0  0  0  0  0  0  0  0
   24.4661   27.1263   14.5362 C   0  0  0  0  0  0  0  0  0  0  0  0
   25.6671   26.9137   14.5863 O   0  0  0  0  0  0  0  0  0  0  0  0
   23.9158   28.3449   14.2908 N   0  0  0  0  0  0  0  0  0  0  0  0
  1  2  2  0
  2  3  1  0
  3  4  1  0
  4  5  1  1
  5  6  1  0
  6  7  1  0
  7  8  1  0
  8  9  1  0
  9 10  1  0
 10 11  2  0
 11 12  1  0
 12 13  2  0
 13 14  1  0
 14 15  2  0
 15 16  1  0
 16 17  2  0
  8 18  1  0
 18 19  1  0
  4 20  1  0
 20 21  2  0
 20 22  1  0
 22  2  1  0
 19  5  1  0
 17  9  1  0
 17 12  1  0
M  END
>  <tags>  (341) 
{'openbind_a71ev2a_c1_knitwork_pure', 'fragmenstein_placed'}

>  <distance_score>  (341) 
0.549482

>  <ref_mols>  (341) 
A3181b,A3417a

>  <smiles>  (341) 
O=C1C[C@H](N2CCC(n3ncc4ccccc43)CC2)C(=O)N1

>  <HIPPO Pose ID>  (341) 
294641

>  <inchikey>  (341) 
SWXAVEIWNZULFS-UHFFFAOYSA-N

>  <ref_pdb>  (341) 
A4311a

>  <alias>  (341) 
C54664-P180

>  <energy_score>  (341) 
-38.24682

>  <HIPPO Compound ID>  (341) 
46019

$$$$
C55786-P481
     RDKit          3D

 22 24  0  0  0  0  0  0  0  0999 V2000
   -1.9668   13.6947   17.8469 O   0  0  0  0  0  0  0  0  0  0  0  0
   -1.0859   14.4466   17.6852 C   0  0  0  0  0  0  0  0  0  0  0  0
   -1.0643   15.4306   16.5235 C   0  0  0  0  0  0  0  0  0  0  0  0
   -1.2060   14.8502   15.1933 N   0  0  0  0  0  0  0  0  0  0  0  0
   -1.5429   13.5842   14.8152 C   0  0  0  0  0  0  0  0  0  0  0  0
   -1.6585   13.6117   13.4443 C   0  0  0  0  0  0  0  0  0  0  0  0
   -1.3292   14.9341   13.0641 C   0  0  0  0  0  0  0  0  0  0  0  0
   -1.3184   15.5680   11.6994 C   0  0  2  0  0  0  0  0  0  0  0  0
   -2.5462   16.4725   11.4806 C   0  0  0  0  0  0  0  0  0  0  0  0
   -2.8683   16.6721    9.9963 C   0  0  0  0  0  0  0  0  0  0  0  0
   -1.6250   16.5299    9.1222 C   0  0  0  0  0  0  0  0  0  0  0  0
   -0.9916   15.2122    9.2343 N   0  0  0  0  0  0  0  0  0  0  0  0
   -1.2042   14.5688   10.5384 C   0  0  0  0  0  0  0  0  0  0  0  0
   -0.9881   15.6720   14.1315 N   0  0  0  0  0  0  0  0  0  0  0  0
    0.1846   14.7117   18.5460 N   0  0  0  0  0  0  0  0  0  0  0  0
    0.6733   14.0399   19.7255 C   0  0  0  0  0  0  0  0  0  0  0  0
    1.5066   12.8227   19.3279 C   0  0  0  0  0  0  0  0  0  0  0  0
    2.8018   13.2606   18.6354 C   0  0  0  0  0  0  0  0  0  0  0  0
    3.6340   12.0446   18.2947 C   0  0  0  0  0  0  0  0  0  0  0  0
    3.9266   11.2792   19.4669 O   0  0  0  0  0  0  0  0  0  0  0  0
    2.7443   10.7844   20.0895 C   0  0  0  0  0  0  0  0  0  0  0  0
    1.8453   11.9330   20.5297 C   0  0  0  0  0  0  0  0  0  0  0  0
  1  2  2  0
  2  3  1  0
  3  4  1  0
  4  5  1  0
  5  6  2  0
  6  7  1  0
  8  7  1  1
  8  9  1  0
  9 10  1  0
 10 11  1  0
 11 12  1  0
 12 13  1  0
  7 14  2  0
  2 15  1  0
 15 16  1  0
 16 17  1  0
 17 18  1  0
 18 19  1  0
 19 20  1  0
 20 21  1  0
 21 22  1  0
 14  4  1  0
 22 17  1  0
 13  8  1  0
M  END
>  <tags>  (342) 
{'openbind_a71ev2a_c1_knitwork_pure', 'fragmenstein_placed'}

>  <distance_score>  (342) 
0.917862

>  <ref_mols>  (342) 
A0473a,A4836a

>  <smiles>  (342) 
O=C(Cn1ccc([C@@H]2CCCNC2)n1)NCC1CCOCC1

>  <HIPPO Pose ID>  (342) 
296576

>  <inchikey>  (342) 
CMXCFLAPBZHWHG-UHFFFAOYSA-N

>  <ref_pdb>  (342) 
A4311a

>  <alias>  (342) 
C55786-P481

>  <energy_score>  (342) 
-31.649314

>  <HIPPO Compound ID>  (342) 
46081

$$$$
C48087-P405
     RDKit          3D

 21 24  0  0  0  0  0  0  0  0999 V2000
    2.3729   14.6831   22.3118 C   0  0  0  0  0  0  0  0  0  0  0  0
    2.5018   15.5004   21.2056 C   0  0  0  0  0  0  0  0  0  0  0  0
    3.6563   16.1063   20.8596 N   0  0  0  0  0  0  0  0  0  0  0  0
    4.7458   15.7898   21.6003 C   0  0  0  0  0  0  0  0  0  0  0  0
    4.7540   14.9254   22.6838 C   0  0  0  0  0  0  0  0  0  0  0  0
    6.0273   14.4913   23.3837 C   0  0  2  0  0  0  0  0  0  0  0  0
    6.2067   15.1801   24.7437 C   0  0  0  0  0  0  0  0  0  0  0  0
    7.4914   14.7295   25.4552 C   0  0  0  0  0  0  0  0  0  0  0  0
    8.3220   13.7525   24.6249 C   0  0  0  0  0  0  0  0  0  0  0  0
    8.5573   14.3131   23.2898 N   0  0  0  0  0  0  0  0  0  0  0  0
    9.8085   14.8600   22.8744 C   0  0  0  0  0  0  0  0  0  0  0  0
   10.8599   15.0782   23.7063 C   0  0  0  0  0  0  0  0  0  0  0  0
   12.0874   15.6144   23.3598 N   0  0  0  0  0  0  0  0  0  0  0  0
   12.2612   15.9550   22.1121 C   0  0  0  0  0  0  0  0  0  0  0  0
   11.2586   15.7443   21.1340 C   0  0  0  0  0  0  0  0  0  0  0  0
   11.3353   15.9710   19.8494 N   0  0  0  0  0  0  0  0  0  0  0  0
   10.0911   15.6233   19.4407 C   0  0  0  0  0  0  0  0  0  0  0  0
    9.2616   15.1861   20.4031 N   0  0  0  0  0  0  0  0  0  0  0  0
   10.0419   15.2331   21.5120 N   0  0  0  0  0  0  0  0  0  0  0  0
    7.3220   14.6527   22.5416 C   0  0  0  0  0  0  0  0  0  0  0  0
    3.5109   14.4159   23.0692 C   0  0  0  0  0  0  0  0  0  0  0  0
  1  2  2  0
  2  3  1  0
  3  4  2  0
  4  5  1  0
  6  5  1  6
  6  7  1  0
  7  8  1  0
  8  9  1  0
  9 10  1  0
 10 11  1  0
 11 12  2  0
 12 13  1  0
 13 14  2  0
 14 15  1  0
 15 16  2  0
 16 17  1  0
 17 18  2  0
 18 19  1  0
 10 20  1  0
  5 21  2  0
 21  1  1  0
 20  6  1  0
 19 11  1  0
 19 15  1  0
M  END
>  <tags>  (343) 
{'openbind_a71ev2a_c1_knitwork_pure', 'fragmenstein_placed'}

>  <distance_score>  (343) 
0.9876

>  <ref_mols>  (343) 
A4570a,A2629a

>  <smiles>  (343) 
c1cncc([C@@H]2CCCN(c3cncc4ncnn34)C2)c1

>  <HIPPO Pose ID>  (343) 
299541

>  <inchikey>  (343) 
PRAKSTQMHOCJPE-UHFFFAOYSA-N

>  <ref_pdb>  (343) 
A4311a

>  <alias>  (343) 
C48087-P405

>  <energy_score>  (343) 
-38.325908

>  <HIPPO Compound ID>  (343) 
48684

$$$$
C12359-P310
     RDKit          3D

 13 13  0  0  0  0  0  0  0  0999 V2000
    7.2094   15.9671   26.4656 C   0  0  0  0  0  0  0  0  0  0  0  0
    8.0221   15.4603   25.2890 C   0  0  0  0  0  0  0  0  0  0  0  0
    7.1331   15.1006   24.1025 C   0  0  0  0  0  0  0  0  0  0  0  0
    7.9532   13.9989   22.9550 S   0  0  0  0  0  0  0  0  0  0  0  0
    9.0138   14.7493   22.3197 O   0  0  0  0  0  0  0  0  0  0  0  0
    6.9866   13.2909   22.1474 O   0  0  0  0  0  0  0  0  0  0  0  0
    8.7349   12.8550   23.9366 N   0  0  0  0  0  0  0  0  0  0  0  0
    8.0022   11.8543   24.6689 C   0  0  0  0  0  0  0  0  0  0  0  0
    7.0386   12.1816   25.6224 C   0  0  0  0  0  0  0  0  0  0  0  0
    6.3754   11.1974   26.3498 C   0  0  0  0  0  0  0  0  0  0  0  0
    6.7185    9.8874   26.1188 C   0  0  0  0  0  0  0  0  0  0  0  0
    7.6856    9.5165   25.2565 N   0  0  0  0  0  0  0  0  0  0  0  0
    8.3036   10.5024   24.5485 C   0  0  0  0  0  0  0  0  0  0  0  0
  1  2  1  0
  2  3  1  0
  3  4  1  0
  4  5  2  0
  4  6  2  0
  4  7  1  0
  7  8  1  0
  8  9  2  0
  9 10  1  0
 10 11  2  0
 11 12  1  0
 12 13  2  0
 13  8  1  0
M  END
>  <tags>  (344) 
{'openbind_a71ev2a_c1_knitwork_pure', 'fragmenstein_placed'}

>  <distance_score>  (344) 
0.921123

>  <ref_mols>  (344) 
A0719a,A4333a

>  <smiles>  (344) 
CCCS(=O)(=O)Nc1cccnc1

>  <HIPPO Pose ID>  (344) 
299547

>  <inchikey>  (344) 
USFYQCKGTJDZSY-UHFFFAOYSA-N

>  <ref_pdb>  (344) 
A4311a

>  <alias>  (344) 
C12359-P310

>  <energy_score>  (344) 
-22.243861

>  <HIPPO Compound ID>  (344) 
49548

$$$$
C46323-P374
     RDKit          3D

 21 23  0  0  0  0  0  0  0  0999 V2000
   20.0537   -4.1669   18.5232 O   0  0  0  0  0  0  0  0  0  0  0  0
   18.9595   -4.3470   18.8964 C   0  0  0  0  0  0  0  0  0  0  0  0
   18.2972   -3.5468   20.0474 C   0  0  0  0  0  0  0  0  0  0  0  0
   19.1497   -2.7366   20.8385 O   0  0  0  0  0  0  0  0  0  0  0  0
   19.5726   -1.5261   20.1932 C   0  0  1  0  0  0  0  0  0  0  0  0
   18.5642   -0.4032   20.4773 C   0  0  0  0  0  0  0  0  0  0  0  0
   18.9508    0.4604   21.6796 C   0  0  0  0  0  0  0  0  0  0  0  0
   19.7957   -0.3097   22.6850 C   0  0  0  0  0  0  0  0  0  0  0  0
   21.0677   -0.7532   22.1227 N   0  0  0  0  0  0  0  0  0  0  0  0
   20.9787   -1.1504   20.7045 C   0  0  0  0  0  0  0  0  0  0  0  0
   17.8737   -5.3505   18.3974 N   0  0  0  0  0  0  0  0  0  0  0  0
   17.9449   -6.3369   17.4604 C   0  0  0  0  0  0  0  0  0  0  0  0
   16.8762   -7.1340   17.3393 N   0  0  0  0  0  0  0  0  0  0  0  0
   17.2045   -7.9657   16.3397 N   0  0  0  0  0  0  0  0  0  0  0  0
   18.4396   -7.7421   15.8047 C   0  0  0  0  0  0  0  0  0  0  0  0
   19.1086   -8.3601   14.7430 C   0  0  0  0  0  0  0  0  0  0  0  0
   20.3635   -7.8551   14.4126 C   0  0  0  0  0  0  0  0  0  0  0  0
   21.0177   -8.4387   13.3637 O   0  0  0  0  0  0  0  0  0  0  0  0
   20.9355   -6.7999   15.1124 C   0  0  0  0  0  0  0  0  0  0  0  0
   20.2465   -6.2057   16.1779 C   0  0  0  0  0  0  0  0  0  0  0  0
   18.9684   -6.6779   16.5337 C   0  0  0  0  0  0  0  0  0  0  0  0
  1  2  2  0
  2  3  1  0
  3  4  1  0
  5  4  1  1
  5  6  1  0
  6  7  1  0
  7  8  1  0
  8  9  1  0
  9 10  1  0
  2 11  1  0
 11 12  1  0
 12 13  2  0
 13 14  1  0
 14 15  1  0
 15 16  2  0
 16 17  1  0
 17 18  1  0
 17 19  2  0
 19 20  1  0
 20 21  2  0
 10  5  1  0
 21 12  1  0
 21 15  1  0
M  END
>  <tags>  (345) 
{'openbind_a71ev2a_c1_knitwork_pure', 'fragmenstein_placed'}

>  <distance_score>  (345) 
0.86678

>  <ref_mols>  (345) 
A0497a,A4463a

>  <smiles>  (345) 
O=C(CO[C@H]1CCCNC1)Nc1n[nH]c2cc(O)ccc12

>  <HIPPO Pose ID>  (345) 
299605

>  <inchikey>  (345) 
AZXXRKXZDHOYLM-UHFFFAOYSA-N

>  <ref_pdb>  (345) 
A4311a

>  <alias>  (345) 
C46323-P374

>  <energy_score>  (345) 
-21.813102

>  <HIPPO Compound ID>  (345) 
45698

$$$$
C46357-P374
     RDKit          3D

 23 26  0  0  0  0  0  0  0  0999 V2000
   21.6740   -5.5257   13.5365 O   0  0  0  0  0  0  0  0  0  0  0  0
   21.5215   -5.7165   14.7537 N   0  0  0  0  0  0  0  0  0  0  0  0
   22.2576   -5.2777   15.6499 O   0  0  0  0  0  0  0  0  0  0  0  0
   20.3992   -6.5588   15.1635 C   0  0  0  0  0  0  0  0  0  0  0  0
   19.9349   -7.5406   14.2791 C   0  0  0  0  0  0  0  0  0  0  0  0
   18.8320   -8.3292   14.6136 C   0  0  0  0  0  0  0  0  0  0  0  0
   18.2543   -8.1125   15.8678 C   0  0  0  0  0  0  0  0  0  0  0  0
   17.1920   -8.7156   16.4850 N   0  0  0  0  0  0  0  0  0  0  0  0
   17.0110   -8.3385   17.7592 N   0  0  0  0  0  0  0  0  0  0  0  0
   17.9368   -7.3858   17.9442 C   0  0  0  0  0  0  0  0  0  0  0  0
   18.1589   -6.6961   19.3361 C   0  0  0  0  0  0  0  0  0  0  0  0
   18.9346   -5.6515   19.5449 N   0  0  0  0  0  0  0  0  0  0  0  0
   18.8576   -5.4737   20.9009 C   0  0  0  0  0  0  0  0  0  0  0  0
   19.5228   -4.3492   21.6215 C   0  0  1  0  0  0  0  0  0  0  0  0
   20.7661   -3.8163   20.9028 C   0  0  0  0  0  0  0  0  0  0  0  0
   21.4227   -2.6784   21.6950 C   0  0  0  0  0  0  0  0  0  0  0  0
   20.4894   -2.0320   22.7226 C   0  0  0  0  0  0  0  0  0  0  0  0
   19.1451   -1.8933   22.1828 N   0  0  0  0  0  0  0  0  0  0  0  0
   18.5280   -3.1933   21.8728 C   0  0  0  0  0  0  0  0  0  0  0  0
   18.0953   -6.3703   21.5407 N   0  0  0  0  0  0  0  0  0  0  0  0
   17.6041   -7.1659   20.4997 O   0  0  0  0  0  0  0  0  0  0  0  0
   18.7236   -7.1709   16.7806 C   0  0  0  0  0  0  0  0  0  0  0  0
   19.8180   -6.3591   16.4263 C   0  0  0  0  0  0  0  0  0  0  0  0
  1  2  2  0
  2  3  1  0
  2  4  1  0
  4  5  2  0
  5  6  1  0
  6  7  2  0
  7  8  1  0
  8  9  1  0
  9 10  2  0
 10 11  1  0
 11 12  2  0
 12 13  1  0
 14 13  1  6
 14 15  1  0
 15 16  1  0
 16 17  1  0
 17 18  1  0
 18 19  1  0
 13 20  2  0
 20 21  1  0
 10 22  1  0
 22 23  2  0
 23  4  1  0
 22  7  1  0
 21 11  1  0
 19 14  1  0
M  CHG  2   2   1   3  -1
M  END
>  <tags>  (346) 
{'openbind_a71ev2a_c1_knitwork_pure', 'fragmenstein_placed'}

>  <distance_score>  (346) 
0.73029

>  <ref_mols>  (346) 
A0497a,A4463a

>  <smiles>  (346) 
O=[N+]([O-])c1ccc2[nH]nc(-c3nc([C@H]4CCCNC4)no3)c2c1

>  <HIPPO Pose ID>  (346) 
299607

>  <inchikey>  (346) 
HWVWLXJFARWMTE-UHFFFAOYSA-N

>  <ref_pdb>  (346) 
A4311a

>  <alias>  (346) 
C46357-P374

>  <energy_score>  (346) 
-41.436151

>  <HIPPO Compound ID>  (346) 
48641

$$$$
C48566-P93
     RDKit          3D

 19 20  0  0  0  0  0  0  0  0999 V2000
    8.3804   18.6149   18.4242 C   0  0  0  0  0  0  0  0  0  0  0  0
    9.5866   17.7979   18.8317 C   0  0  0  0  0  0  0  0  0  0  0  0
    9.5481   16.3815   18.7354 O   0  0  0  0  0  0  0  0  0  0  0  0
   10.7697   15.8566   18.4545 C   0  0  0  0  0  0  0  0  0  0  0  0
   11.6263   16.3533   17.7445 O   0  0  0  0  0  0  0  0  0  0  0  0
   11.0595   14.6096   19.1945 C   0  0  0  0  0  0  0  0  0  0  0  0
   11.6165   14.7764   20.5936 C   0  0  0  0  0  0  0  0  0  0  0  0
   10.7176   15.2531   21.7410 C   0  0  0  0  0  0  0  0  0  0  0  0
   11.1812   14.5349   23.0283 C   0  0  0  0  0  0  0  0  0  0  0  0
   10.1731   14.5967   24.1722 C   0  0  0  0  0  0  0  0  0  0  0  0
    8.8015   14.2665   23.7686 N   0  0  0  0  0  0  0  0  0  0  0  0
    8.7039   12.9102   23.2279 C   0  0  0  0  0  0  0  0  0  0  0  0
    8.4423   11.8950   24.2656 C   0  0  0  0  0  0  0  0  0  0  0  0
    7.3322   11.8496   25.1314 C   0  0  0  0  0  0  0  0  0  0  0  0
    7.3331   10.5644   25.5988 C   0  0  0  0  0  0  0  0  0  0  0  0
    8.4431    9.9658   25.0799 N   0  0  0  0  0  0  0  0  0  0  0  0
    9.1650   10.7704   24.3027 N   0  0  0  0  0  0  0  0  0  0  0  0
    8.3704   15.1915   22.7177 C   0  0  0  0  0  0  0  0  0  0  0  0
    9.2212   15.0926   21.4689 C   0  0  0  0  0  0  0  0  0  0  0  0
  1  2  1  0
  2  3  1  0
  3  4  1  0
  4  5  2  0
  4  6  1  0
  6  7  1  0
  7  8  1  0
  8  9  1  0
  9 10  1  0
 10 11  1  0
 11 12  1  0
 12 13  1  0
 13 14  1  0
 14 15  2  0
 15 16  1  0
 16 17  1  0
 11 18  1  0
 18 19  1  0
 19  8  1  0
 17 13  2  0
M  END
>  <tags>  (347) 
{'openbind_a71ev2a_c1_knitwork_pure', 'fragmenstein_placed'}

>  <distance_score>  (347) 
0.98483

>  <ref_mols>  (347) 
A0556a,A0926a

>  <smiles>  (347) 
CCOC(=O)CCC1CCN(Cc2cc[nH]n2)CC1

>  <HIPPO Pose ID>  (347) 
299709

>  <inchikey>  (347) 
HQGYPUCPEKYMFA-UHFFFAOYSA-N

>  <ref_pdb>  (347) 
A4311a

>  <alias>  (347) 
C48566-P93

>  <energy_score>  (347) 
-28.103622

>  <HIPPO Compound ID>  (347) 
54290

$$$$
C45903-P337
     RDKit          3D

 21 23  0  0  0  0  0  0  0  0999 V2000
   23.9426   18.8888   25.2633 O   0  0  0  0  0  0  0  0  0  0  0  0
   23.5170   19.5849   24.0874 C   0  0  1  0  0  0  0  0  0  0  0  0
   24.0543   18.8610   22.8564 C   0  0  0  0  0  0  0  0  0  0  0  0
   25.5813   18.7832   22.8061 C   0  0  0  0  0  0  0  0  0  0  0  0
   26.0565   19.1160   21.4599 N   0  0  0  0  0  0  0  0  0  0  0  0
   26.5715   20.4041   21.2788 C   0  0  0  0  0  0  0  0  0  0  0  0
   25.9308   21.4709   21.8330 C   0  0  0  0  0  0  0  0  0  0  0  0
   26.6463   22.6190   21.8400 C   0  0  0  0  0  0  0  0  0  0  0  0
   27.8315   22.7893   21.2493 N   0  0  0  0  0  0  0  0  0  0  0  0
   28.3602   21.7274   20.6302 C   0  0  0  0  0  0  0  0  0  0  0  0
   29.6011   21.9080   20.0239 N   0  0  0  0  0  0  0  0  0  0  0  0
   30.3352   20.7532   19.5628 C   0  0  0  0  0  0  0  0  0  0  0  0
   31.3166   21.1294   18.4508 C   0  0  0  0  0  0  0  0  0  0  0  0
   31.9487   22.5100   18.6148 C   0  0  0  0  0  0  0  0  0  0  0  0
   31.8181   23.0218   20.0395 C   0  0  0  0  0  0  0  0  0  0  0  0
   30.3595   23.0640   20.4996 C   0  0  0  0  0  0  0  0  0  0  0  0
   27.7318   20.5343   20.6007 N   0  0  0  0  0  0  0  0  0  0  0  0
   21.9854   19.6886   24.0951 C   0  0  0  0  0  0  0  0  0  0  0  0
   21.1129   18.4285   23.8665 C   0  0  0  0  0  0  0  0  0  0  0  0
   20.8566   18.9062   22.4245 C   0  0  0  0  0  0  0  0  0  0  0  0
   21.2888   20.3150   22.8559 C   0  0  0  0  0  0  0  0  0  0  0  0
  2  1  1  1
  2  3  1  0
  3  4  1  0
  4  5  1  0
  5  6  1  0
  6  7  2  0
  7  8  1  0
  8  9  2  0
  9 10  1  0
 10 11  1  0
 11 12  1  0
 12 13  1  0
 13 14  1  0
 14 15  1  0
 15 16  1  0
 10 17  2  0
  2 18  1  0
 18 19  1  0
 19 20  1  0
 20 21  1  0
 17  6  1  0
 21 18  1  0
 16 11  1  0
M  END
>  <tags>  (348) 
{'openbind_a71ev2a_c1_knitwork_pure', 'fragmenstein_placed'}

>  <distance_score>  (348) 
0.553111

>  <ref_mols>  (348) 
A4214b,A1146a

>  <smiles>  (348) 
O[C@@H](CCNc1ccnc(N2CCCCC2)n1)C1CCC1

>  <HIPPO Pose ID>  (348) 
300967

>  <inchikey>  (348) 
NFJAZBLUEKNGGI-UHFFFAOYSA-N

>  <ref_pdb>  (348) 
A4311a

>  <alias>  (348) 
C45903-P337

>  <energy_score>  (348) 
-38.506494

>  <HIPPO Compound ID>  (348) 
46545

$$$$
C29426-P551
     RDKit          3D

 13 13  0  0  0  0  0  0  0  0999 V2000
    7.3075   14.3811   22.7004 C   0  0  0  0  0  0  0  0  0  0  0  0
    8.5726   14.3237   23.5754 C   0  0  1  0  0  0  0  0  0  0  0  0
    8.5639   12.9101   24.2439 C   0  0  0  0  0  0  0  0  0  0  0  0
    7.9366   12.6715   25.1977 O   0  0  0  0  0  0  0  0  0  0  0  0
    9.4145   11.9871   23.3520 N   0  0  0  0  0  0  0  0  0  0  0  0
    9.5901   10.6156   23.3877 O   0  0  0  0  0  0  0  0  0  0  0  0
    9.8514   14.5893   22.8579 N   0  0  0  0  0  0  0  0  0  0  0  0
    9.8042   15.2620   21.5520 C   0  0  0  0  0  0  0  0  0  0  0  0
   11.1408   15.3143   20.8293 C   0  0  0  0  0  0  0  0  0  0  0  0
   12.1901   15.8950   21.7525 C   0  0  0  0  0  0  0  0  0  0  0  0
   12.2926   15.0293   22.9885 C   0  0  0  0  0  0  0  0  0  0  0  0
   10.9685   14.7999   23.6832 C   0  0  0  0  0  0  0  0  0  0  0  0
   10.9287   14.6643   24.9069 O   0  0  0  0  0  0  0  0  0  0  0  0
  2  1  1  6
  2  3  1  0
  3  4  2  0
  3  5  1  0
  5  6  1  0
  2  7  1  0
  7  8  1  0
  8  9  1  0
  9 10  1  0
 10 11  1  0
 11 12  1  0
 12 13  2  0
 12  7  1  0
M  END
>  <tags>  (349) 
{'openbind_a71ev2a_c1_knitwork_pure', 'fragmenstein_placed'}

>  <distance_score>  (349) 
0.65086

>  <ref_mols>  (349) 
A1080a,A5036b

>  <smiles>  (349) 
C[C@@H](C(=O)NO)N1CCCCC1=O

>  <HIPPO Pose ID>  (349) 
301085

>  <inchikey>  (349) 
IIPXDYCSPRLGJU-UHFFFAOYSA-N

>  <ref_pdb>  (349) 
A4311a

>  <alias>  (349) 
C29426-P551

>  <energy_score>  (349) 
-0.004349

>  <HIPPO Compound ID>  (349) 
45947

$$$$
C54664-P441
     RDKit          3D

 22 25  0  0  0  0  0  0  0  0999 V2000
   24.9489   27.8869   12.4441 O   0  0  0  0  0  0  0  0  0  0  0  0
   24.2623   27.1599   13.1436 C   0  0  0  0  0  0  0  0  0  0  0  0
   24.2314   27.1800   14.6407 C   0  0  0  0  0  0  0  0  0  0  0  0
   23.0347   26.2935   15.0171 C   0  0  2  0  0  0  0  0  0  0  0  0
   23.4311   25.1990   15.9369 N   0  0  0  0  0  0  0  0  0  0  0  0
   23.7479   25.6977   17.2775 C   0  0  0  0  0  0  0  0  0  0  0  0
   24.4778   24.6137   18.0716 C   0  0  0  0  0  0  0  0  0  0  0  0
   23.9433   23.1945   17.7898 C   0  0  0  0  0  0  0  0  0  0  0  0
   24.1316   22.3375   18.9570 N   0  0  0  0  0  0  0  0  0  0  0  0
   23.0928   22.0295   19.7731 N   0  0  0  0  0  0  0  0  0  0  0  0
   23.6780   21.3870   20.7873 C   0  0  0  0  0  0  0  0  0  0  0  0
   25.0781   21.2837   20.6438 C   0  0  0  0  0  0  0  0  0  0  0  0
   26.1375   20.7464   21.3968 C   0  0  0  0  0  0  0  0  0  0  0  0
   27.4420   20.8443   20.8954 C   0  0  0  0  0  0  0  0  0  0  0  0
   27.6908   21.4584   19.6692 C   0  0  0  0  0  0  0  0  0  0  0  0
   26.6499   21.9954   18.9077 C   0  0  0  0  0  0  0  0  0  0  0  0
   25.3506   21.8971   19.4262 C   0  0  0  0  0  0  0  0  0  0  0  0
   22.5039   23.2744   17.2904 C   0  0  0  0  0  0  0  0  0  0  0  0
   22.4254   24.1210   16.0127 C   0  0  0  0  0  0  0  0  0  0  0  0
   22.5406   25.8098   13.6546 C   0  0  0  0  0  0  0  0  0  0  0  0
   21.4986   25.2080   13.4375 O   0  0  0  0  0  0  0  0  0  0  0  0
   23.3900   26.2338   12.6885 N   0  0  0  0  0  0  0  0  0  0  0  0
  1  2  2  0
  2  3  1  0
  3  4  1  0
  4  5  1  1
  5  6  1  0
  6  7  1  0
  7  8  1  0
  8  9  1  0
  9 10  1  0
 10 11  2  0
 11 12  1  0
 12 13  2  0
 13 14  1  0
 14 15  2  0
 15 16  1  0
 16 17  2  0
  8 18  1  0
 18 19  1  0
  4 20  1  0
 20 21  2  0
 20 22  1  0
 22  2  1  0
 19  5  1  0
 17  9  1  0
 17 12  1  0
M  END
>  <tags>  (350) 
{'openbind_a71ev2a_c1_knitwork_pure', 'fragmenstein_placed'}

>  <distance_score>  (350) 
0.548648

>  <ref_mols>  (350) 
A4708a,A3181b

>  <smiles>  (350) 
O=C1C[C@H](N2CCC(n3ncc4ccccc43)CC2)C(=O)N1

>  <HIPPO Pose ID>  (350) 
302339

>  <inchikey>  (350) 
UEVJLQLOPDVOAR-UHFFFAOYSA-N

>  <ref_pdb>  (350) 
A3436a

>  <alias>  (350) 
C54664-P441

>  <energy_score>  (350) 
-39.686356

>  <HIPPO Compound ID>  (350) 
46327

$$$$
C127359-P20
     RDKit          3D

 16 17  0  0  0  0  0  0  0  0999 V2000
   13.5339   25.4173   26.8049 O   0  0  0  0  0  0  0  0  0  0  0  0
   13.6661   24.4667   27.5721 C   0  0  0  0  0  0  0  0  0  0  0  0
   12.9673   24.5226   28.8812 C   0  0  0  0  0  0  0  0  0  0  0  0
   13.1081   23.5277   29.7608 C   0  0  0  0  0  0  0  0  0  0  0  0
   13.9446   22.4017   29.4493 C   0  0  0  0  0  0  0  0  0  0  0  0
   14.5762   22.3080   28.2659 C   0  0  0  0  0  0  0  0  0  0  0  0
   15.6576   20.7963   27.9624 Br  0  0  0  0  0  0  0  0  0  0  0  0
   14.4276   23.3226   27.3122 N   0  0  0  0  0  0  0  0  0  0  0  0
   15.0606   23.2284   25.9940 C   0  0  0  0  0  0  0  0  0  0  0  0
   14.3326   22.3232   24.9848 C   0  0  0  0  0  0  0  0  0  0  0  0
   13.0809   23.2041   24.0046 S   0  0  0  0  0  0  0  0  0  0  0  0
   11.5023   22.7228   24.7707 C   0  0  2  0  0  0  0  0  0  0  0  0
   10.6588   23.9410   25.0744 C   0  0  0  0  0  0  0  0  0  0  0  0
    9.5522   23.3357   25.9041 C   0  0  0  0  0  0  0  0  0  0  0  0
   10.1593   22.3048   26.6887 O   0  0  0  0  0  0  0  0  0  0  0  0
   11.3856   21.9067   26.0441 C   0  0  0  0  0  0  0  0  0  0  0  0
  1  2  2  0
  2  3  1  0
  3  4  2  0
  4  5  1  0
  5  6  2  0
  6  7  1  0
  6  8  1  0
  8  9  1  0
  9 10  1  0
 10 11  1  0
 12 11  1  1
 12 13  1  0
 13 14  1  0
 14 15  1  0
 15 16  1  0
  8  2  1  0
 16 12  1  0
M  END
>  <tags>  (351) 
{'openbind_a71ev2a_c1_knitwork_pure', 'fragmenstein_placed'}

>  <distance_score>  (351) 
0.819382

>  <ref_mols>  (351) 
A0525a,A3178a

>  <smiles>  (351) 
O=c1cccc(Br)n1CCS[C@@H]1CCOC1

>  <HIPPO Pose ID>  (351) 
304813

>  <inchikey>  (351) 
FNHYNFVWJDXWDE-UHFFFAOYSA-N

>  <ref_pdb>  (351) 
A3436a

>  <alias>  (351) 
C127359-P20

>  <energy_score>  (351) 
-40.891706

>  <HIPPO Compound ID>  (351) 
97204

$$$$
C52374-P354
     RDKit          3D

 23 25  0  0  0  0  0  0  0  0999 V2000
    8.1623   10.7063   24.5162 C   0  0  0  0  0  0  0  0  0  0  0  0
    7.3681    9.9467   25.3687 C   0  0  0  0  0  0  0  0  0  0  0  0
    6.5591   10.5564   26.3307 C   0  0  0  0  0  0  0  0  0  0  0  0
    6.5312   11.9514   26.4471 C   0  0  0  0  0  0  0  0  0  0  0  0
    5.7108   12.5999   27.5419 C   0  0  0  0  0  0  0  0  0  0  0  0
    5.5679   14.0104   27.3604 O   0  0  0  0  0  0  0  0  0  0  0  0
    6.5402   14.8128   28.0455 C   0  0  0  0  0  0  0  0  0  0  0  0
    6.7074   16.0935   27.2310 C   0  0  0  0  0  0  0  0  0  0  0  0
    7.5765   17.1910   27.8636 C   0  0  0  0  0  0  0  0  0  0  0  0
    7.0888   17.8177   29.1061 N   0  0  0  0  0  0  0  0  0  0  0  0
    5.6469   18.0957   29.1075 C   0  0  0  0  0  0  0  0  0  0  0  0
    5.2408   19.1421   28.0774 C   0  0  0  0  0  0  0  0  0  0  0  0
    5.9569   20.4572   28.3314 C   0  0  0  0  0  0  0  0  0  0  0  0
    7.4848   20.2988   28.4749 C   0  0  1  0  0  0  0  0  0  0  0  0
    7.9980   21.6212   28.8927 N   0  0  0  0  0  0  0  0  0  0  0  0
    7.9469   22.6100   27.7866 C   0  0  0  0  0  0  0  0  0  0  0  0
    9.0403   23.6923   27.8520 C   0  0  0  0  0  0  0  0  0  0  0  0
   10.3977   23.1380   27.9015 N   0  0  0  0  0  0  0  0  0  0  0  0
   10.4764   21.9341   28.7381 C   0  0  0  0  0  0  0  0  0  0  0  0
    9.2585   21.6839   29.6306 C   0  0  0  0  0  0  0  0  0  0  0  0
    7.8117   19.0823   29.4081 C   0  0  0  0  0  0  0  0  0  0  0  0
    7.2992   12.7018   25.5429 C   0  0  0  0  0  0  0  0  0  0  0  0
    8.1183   12.0892   24.5945 C   0  0  0  0  0  0  0  0  0  0  0  0
  1  2  2  0
  2  3  1  0
  3  4  2  0
  4  5  1  0
  5  6  1  0
  6  7  1  0
  7  8  1  0
  8  9  1  0
  9 10  1  0
 10 11  1  0
 11 12  1  0
 12 13  1  0
 13 14  1  0
 14 15  1  1
 15 16  1  0
 16 17  1  0
 17 18  1  0
 18 19  1  0
 19 20  1  0
 14 21  1  0
  4 22  1  0
 22 23  2  0
 23  1  1  0
 21 10  1  0
 20 15  1  0
M  END
>  <tags>  (352) 
{'openbind_a71ev2a_c1_knitwork_pure', 'fragmenstein_placed'}

>  <distance_score>  (352) 
0.985715

>  <ref_mols>  (352) 
A4415a,A0469a

>  <smiles>  (352) 
c1ccc(COCCCN2CCC[C@@H](N3CCNCC3)C2)cc1

>  <HIPPO Pose ID>  (352) 
304888

>  <inchikey>  (352) 
OLDSNDJYHCNLFD-UHFFFAOYSA-N

>  <ref_pdb>  (352) 
A3436a

>  <alias>  (352) 
C52374-P354

>  <energy_score>  (352) 
-51.163987

>  <HIPPO Compound ID>  (352) 
49818

$$$$
C52375-P354
     RDKit          3D

 23 25  0  0  0  0  0  0  0  0999 V2000
    7.9050   11.3126   24.5568 C   0  0  0  0  0  0  0  0  0  0  0  0
    7.9887   12.7473   25.0359 C   0  0  0  0  0  0  0  0  0  0  0  0
    6.7240   13.1686   25.7723 C   0  0  0  0  0  0  0  0  0  0  0  0
    6.2947   12.1220   26.8006 C   0  0  1  0  0  0  0  0  0  0  0  0
    5.0096   12.5137   27.5463 C   0  0  0  0  0  0  0  0  0  0  0  0
    5.0084   13.8637   28.0229 O   0  0  0  0  0  0  0  0  0  0  0  0
    5.8307   14.0954   29.1621 C   0  0  0  0  0  0  0  0  0  0  0  0
    5.9782   15.6050   29.3918 C   0  0  0  0  0  0  0  0  0  0  0  0
    6.5955   16.2915   28.1651 C   0  0  0  0  0  0  0  0  0  0  0  0
    6.9699   17.7016   28.2921 N   0  0  0  0  0  0  0  0  0  0  0  0
    5.8591   18.5953   28.6161 C   0  0  0  0  0  0  0  0  0  0  0  0
    6.2748   20.0503   28.3918 C   0  0  0  0  0  0  0  0  0  0  0  0
    7.5594   20.4127   29.1681 C   0  0  0  0  0  0  0  0  0  0  0  0
    7.9725   21.8165   28.9711 N   0  0  0  0  0  0  0  0  0  0  0  0
    7.8921   22.3190   27.5896 C   0  0  0  0  0  0  0  0  0  0  0  0
    8.7419   23.5791   27.3304 C   0  0  0  0  0  0  0  0  0  0  0  0
   10.1676   23.4217   27.6442 N   0  0  0  0  0  0  0  0  0  0  0  0
   10.4019   22.3982   28.6686 C   0  0  0  0  0  0  0  0  0  0  0  0
    9.2196   22.2147   29.6396 C   0  0  0  0  0  0  0  0  0  0  0  0
    8.6517   19.3634   28.8919 C   0  0  0  0  0  0  0  0  0  0  0  0
    8.1289   17.9459   29.1389 C   0  0  0  0  0  0  0  0  0  0  0  0
    6.1018   10.8504   26.1744 O   0  0  0  0  0  0  0  0  0  0  0  0
    7.2898   10.3588   25.5635 C   0  0  0  0  0  0  0  0  0  0  0  0
  1  2  1  0
  2  3  1  0
  3  4  1  0
  4  5  1  6
  5  6  1  0
  6  7  1  0
  7  8  1  0
  8  9  1  0
  9 10  1  0
 10 11  1  0
 11 12  1  0
 12 13  1  0
 13 14  1  0
 14 15  1  0
 15 16  1  0
 16 17  1  0
 17 18  1  0
 18 19  1  0
 13 20  1  0
 20 21  1  0
  4 22  1  0
 22 23  1  0
 23  1  1  0
 21 10  1  0
 19 14  1  0
M  END
>  <tags>  (353) 
{'openbind_a71ev2a_c1_knitwork_pure', 'fragmenstein_placed'}

>  <distance_score>  (353) 
0.985505

>  <ref_mols>  (353) 
A4415a,A0469a

>  <smiles>  (353) 
C1CC[C@@H](COCCCN2CCC(N3CCNCC3)CC2)OC1

>  <HIPPO Pose ID>  (353) 
304889

>  <inchikey>  (353) 
PEDGVMFOGXYVTC-UHFFFAOYSA-N

>  <ref_pdb>  (353) 
A3436a

>  <alias>  (353) 
C52375-P354

>  <energy_score>  (353) 
-69.415423

>  <HIPPO Compound ID>  (353) 
9529

$$$$
C59022-P93
     RDKit          3D

 20 22  0  0  0  0  0  0  0  0999 V2000
    4.3044   15.1610   23.2399 O   0  0  0  0  0  0  0  0  0  0  0  0
    4.6303   14.7427   22.2004 C   0  0  0  0  0  0  0  0  0  0  0  0
    6.0295   14.3698   21.6665 N   0  0  0  0  0  0  0  0  0  0  0  0
    7.3054   14.3434   22.3283 C   0  0  1  0  0  0  0  0  0  0  0  0
    8.3499   15.1844   21.5969 C   0  0  0  0  0  0  0  0  0  0  0  0
    9.7365   14.9156   22.1737 C   0  0  0  0  0  0  0  0  0  0  0  0
    9.7669   14.9532   23.7083 C   0  0  0  0  0  0  0  0  0  0  0  0
    8.6503   14.2985   24.4073 N   0  0  0  0  0  0  0  0  0  0  0  0
    8.8516   12.8663   24.7128 C   0  0  0  0  0  0  0  0  0  0  0  0
    9.6584   12.0310   23.6995 C   0  0  0  0  0  0  0  0  0  0  0  0
    9.7384   10.5538   24.0579 C   0  0  0  0  0  0  0  0  0  0  0  0
    8.4621   10.0160   24.3631 O   0  0  0  0  0  0  0  0  0  0  0  0
    7.8366   10.7064   25.4253 C   0  0  0  0  0  0  0  0  0  0  0  0
    7.5471   12.1413   25.0780 C   0  0  0  0  0  0  0  0  0  0  0  0
    7.3519   14.6946   23.8176 C   0  0  0  0  0  0  0  0  0  0  0  0
    3.6815   14.5127   21.0934 C   0  0  0  0  0  0  0  0  0  0  0  0
    2.5741   15.1859   20.8271 N   0  0  0  0  0  0  0  0  0  0  0  0
    2.1156   14.6227   19.6568 C   0  0  0  0  0  0  0  0  0  0  0  0
    2.9849   13.6520   19.2301 C   0  0  0  0  0  0  0  0  0  0  0  0
    4.0072   13.5821   20.1256 O   0  0  0  0  0  0  0  0  0  0  0  0
  1  2  2  0
  2  3  1  0
  4  3  1  6
  4  5  1  0
  5  6  1  0
  6  7  1  0
  7  8  1  0
  8  9  1  0
  9 10  1  0
 10 11  1  0
 11 12  1  0
 12 13  1  0
 13 14  1  0
  8 15  1  0
  2 16  1  0
 16 17  2  0
 17 18  1  0
 18 19  2  0
 19 20  1  0
 15  4  1  0
 20 16  1  0
 14  9  1  0
M  END
>  <tags>  (354) 
{'openbind_a71ev2a_c1_knitwork_pure', 'fragmenstein_placed'}

>  <distance_score>  (354) 
0.820828

>  <ref_mols>  (354) 
A3623a,A0926a

>  <smiles>  (354) 
O=C(N[C@H]1CCCN(C2CCOCC2)C1)c1ncco1

>  <HIPPO Pose ID>  (354) 
306234

>  <inchikey>  (354) 
BFNJPRDSFVMZDA-UHFFFAOYSA-N

>  <ref_pdb>  (354) 
A4461a

>  <alias>  (354) 
C59022-P93

>  <energy_score>  (354) 
-18.003652

>  <HIPPO Compound ID>  (354) 
59022

$$$$
C10281-P310
     RDKit          3D

 11 12  0  0  0  0  0  0  0  0999 V2000
    8.0254   11.2959   25.2537 C   0  0  0  0  0  0  0  0  0  0  0  0
    7.3429   12.0790   26.1740 C   0  0  0  0  0  0  0  0  0  0  0  0
    6.3225   11.5149   26.9380 C   0  0  0  0  0  0  0  0  0  0  0  0
    5.9651   10.1876   26.7148 C   0  0  0  0  0  0  0  0  0  0  0  0
    4.8766    9.6449   27.4749 N   0  0  0  0  0  0  0  0  0  0  0  0
    4.1260    8.5275   27.1763 C   0  0  0  0  0  0  0  0  0  0  0  0
    3.1974    8.3694   28.1752 C   0  0  0  0  0  0  0  0  0  0  0  0
    3.4202    9.4570   29.0282 C   0  0  0  0  0  0  0  0  0  0  0  0
    4.4023   10.2534   28.6018 N   0  0  0  0  0  0  0  0  0  0  0  0
    6.5982    9.4150   25.7847 N   0  0  0  0  0  0  0  0  0  0  0  0
    7.6337    9.9786   25.1093 C   0  0  0  0  0  0  0  0  0  0  0  0
  1  2  2  0
  2  3  1  0
  3  4  2  0
  4  5  1  0
  5  6  1  0
  6  7  2  0
  7  8  1  0
  8  9  2  0
  4 10  1  0
 10 11  2  0
 11  1  1  0
  9  5  1  0
M  END
>  <tags>  (355) 
{'openbind_a71ev2a_c1_knitwork_pure', 'fragmenstein_placed'}

>  <distance_score>  (355) 
0.93689

>  <ref_mols>  (355) 
A0556a,A4333a

>  <smiles>  (355) 
c1ccc(-n2cccn2)nc1

>  <HIPPO Pose ID>  (355) 
307196

>  <inchikey>  (355) 
LKENARBUOFSVNC-UHFFFAOYSA-N

>  <ref_pdb>  (355) 
A0541a

>  <alias>  (355) 
C10281-P310

>  <energy_score>  (355) 
-25.866788

>  <HIPPO Compound ID>  (355) 
48646

$$$$
C63652-P310
     RDKit          3D

 20 21  0  0  0  0  0  0  0  0999 V2000
    7.4973   13.7841   23.3330 C   0  0  0  0  0  0  0  0  0  0  0  0
    8.7647   13.6130   24.0523 N   0  0  0  0  0  0  0  0  0  0  0  0
    9.8360   14.0879   23.1506 C   0  0  0  0  0  0  0  0  0  0  0  0
   11.0983   14.6064   23.8436 C   0  0  0  0  0  0  0  0  0  0  0  0
   12.2051   14.7155   22.9415 O   0  0  0  0  0  0  0  0  0  0  0  0
   12.0045   15.6299   21.8550 C   0  0  0  0  0  0  0  0  0  0  0  0
   11.5839   14.9232   20.5618 C   0  0  0  0  0  0  0  0  0  0  0  0
   11.1354   15.8459   19.5798 O   0  0  0  0  0  0  0  0  0  0  0  0
    9.0174   12.1975   24.4081 C   0  0  0  0  0  0  0  0  0  0  0  0
    7.9662   11.5150   25.2558 C   0  0  0  0  0  0  0  0  0  0  0  0
    7.2725   12.1488   26.2874 C   0  0  0  0  0  0  0  0  0  0  0  0
    6.2885   11.4619   27.0077 C   0  0  0  0  0  0  0  0  0  0  0  0
    5.9893   10.1480   26.6593 C   0  0  0  0  0  0  0  0  0  0  0  0
    4.9179    9.4693   27.3350 N   0  0  0  0  0  0  0  0  0  0  0  0
    4.4327    9.7111   28.6092 C   0  0  0  0  0  0  0  0  0  0  0  0
    3.4636    8.7681   28.8606 C   0  0  0  0  0  0  0  0  0  0  0  0
    3.3774    8.0281   27.6745 C   0  0  0  0  0  0  0  0  0  0  0  0
    4.1678    8.5106   26.7159 N   0  0  0  0  0  0  0  0  0  0  0  0
    6.6752    9.4977   25.6796 N   0  0  0  0  0  0  0  0  0  0  0  0
    7.6578   10.1779   25.0349 C   0  0  0  0  0  0  0  0  0  0  0  0
  1  2  1  0
  2  3  1  0
  3  4  1  0
  4  5  1  0
  5  6  1  0
  6  7  1  0
  7  8  1  0
  2  9  1  0
  9 10  1  0
 10 11  2  0
 11 12  1  0
 12 13  2  0
 13 14  1  0
 14 15  1  0
 15 16  2  0
 16 17  1  0
 17 18  2  0
 13 19  1  0
 19 20  2  0
 20 10  1  0
 18 14  1  0
M  END
>  <tags>  (356) 
{'openbind_a71ev2a_c1_knitwork_pure', 'fragmenstein_placed'}

>  <distance_score>  (356) 
0.830779

>  <ref_mols>  (356) 
A0556a,A4333a

>  <smiles>  (356) 
CN(CCOCCO)Cc1ccc(-n2cccn2)nc1

>  <HIPPO Pose ID>  (356) 
307222

>  <inchikey>  (356) 
AQAKSQZHWPPYOI-UHFFFAOYSA-N

>  <ref_pdb>  (356) 
A0541a

>  <alias>  (356) 
C63652-P310

>  <energy_score>  (356) 
-22.600346

>  <HIPPO Compound ID>  (356) 
80825

$$$$
C3732-P310
     RDKit          3D

 11 12  0  0  0  0  0  0  0  0999 V2000
    8.0435   11.3603   25.1116 C   0  0  0  0  0  0  0  0  0  0  0  0
    7.2827   12.1942   25.9203 C   0  0  0  0  0  0  0  0  0  0  0  0
    6.2786   11.6500   26.7204 C   0  0  0  0  0  0  0  0  0  0  0  0
    6.0487   10.2811   26.6734 C   0  0  0  0  0  0  0  0  0  0  0  0
    5.0443    9.6752   27.5321 C   0  0  0  0  0  0  0  0  0  0  0  0
    4.6689    9.9609   28.8637 C   0  0  0  0  0  0  0  0  0  0  0  0
    3.7203    9.1421   29.3277 N   0  0  0  0  0  0  0  0  0  0  0  0
    3.5401    8.2760   28.3168 N   0  0  0  0  0  0  0  0  0  0  0  0
    4.2323    8.6139   27.1919 C   0  0  0  0  0  0  0  0  0  0  0  0
    6.7638    9.4550   25.8665 N   0  0  0  0  0  0  0  0  0  0  0  0
    7.7520   10.0093   25.1203 C   0  0  0  0  0  0  0  0  0  0  0  0
  1  2  2  0
  2  3  1  0
  3  4  2  0
  4  5  1  0
  5  6  1  0
  6  7  2  0
  7  8  1  0
  8  9  1  0
  4 10  1  0
 10 11  2  0
 11  1  1  0
  9  5  2  0
M  END
>  <tags>  (357) 
{'openbind_a71ev2a_c1_knitwork_pure', 'fragmenstein_placed'}

>  <distance_score>  (357) 
0.835148

>  <ref_mols>  (357) 
A0556a,A4333a

>  <smiles>  (357) 
c1ccc(-c2cn[nH]c2)nc1

>  <HIPPO Pose ID>  (357) 
307224

>  <inchikey>  (357) 
DIPNTWZPFZFZLY-UHFFFAOYSA-N

>  <ref_pdb>  (357) 
A0541a

>  <alias>  (357) 
C3732-P310

>  <energy_score>  (357) 
-11.219788

>  <HIPPO Compound ID>  (357) 
47453

$$$$
C3689-P310
     RDKit          3D

 11 12  0  0  0  0  0  0  0  0999 V2000
    8.0731   11.3299   25.1086 C   0  0  0  0  0  0  0  0  0  0  0  0
    7.3027   12.1813   25.8891 C   0  0  0  0  0  0  0  0  0  0  0  0
    6.2799   11.6561   26.6781 C   0  0  0  0  0  0  0  0  0  0  0  0
    6.0484   10.2870   26.6536 C   0  0  0  0  0  0  0  0  0  0  0  0
    5.0041    9.6664   27.4619 C   0  0  0  0  0  0  0  0  0  0  0  0
    4.1653    8.5928   27.2257 C   0  0  0  0  0  0  0  0  0  0  0  0
    3.3978    8.4409   28.3920 C   0  0  0  0  0  0  0  0  0  0  0  0
    3.6808    9.3751   29.3000 N   0  0  0  0  0  0  0  0  0  0  0  0
    4.6904   10.0601   28.7367 N   0  0  0  0  0  0  0  0  0  0  0  0
    6.7716    9.4450   25.8775 N   0  0  0  0  0  0  0  0  0  0  0  0
    7.7738    9.9810   25.1359 C   0  0  0  0  0  0  0  0  0  0  0  0
  1  2  2  0
  2  3  1  0
  3  4  2  0
  4  5  1  0
  5  6  2  0
  6  7  1  0
  7  8  2  0
  8  9  1  0
  4 10  1  0
 10 11  2  0
 11  1  1  0
  9  5  1  0
M  END
>  <tags>  (358) 
{'openbind_a71ev2a_c1_knitwork_pure', 'fragmenstein_placed'}

>  <distance_score>  (358) 
0.836422

>  <ref_mols>  (358) 
A0556a,A4333a

>  <smiles>  (358) 
c1ccc(-c2ccn[nH]2)nc1

>  <HIPPO Pose ID>  (358) 
307229

>  <inchikey>  (358) 
JJKPNZIAVNEQFY-UHFFFAOYSA-N

>  <ref_pdb>  (358) 
A0541a

>  <alias>  (358) 
C3689-P310

>  <energy_score>  (358) 
-6.141823

>  <HIPPO Compound ID>  (358) 
105126

$$$$
C55396-P28
     RDKit          3D

 12 12  0  0  0  0  0  0  0  0999 V2000
    4.7810    8.4056   29.1574 C   0  0  0  0  0  0  0  0  0  0  0  0
    4.3675    9.2027   27.9471 C   0  0  0  0  0  0  0  0  0  0  0  0
    5.4858    9.7404   27.2204 N   0  0  0  0  0  0  0  0  0  0  0  0
    5.9337   11.1928   27.0116 C   0  0  0  0  0  0  0  0  0  0  0  0
    5.5145   12.1834   27.4574 O   0  0  0  0  0  0  0  0  0  0  0  0
    7.0187   11.2665   25.9917 C   0  0  0  0  0  0  0  0  0  0  0  0
    7.4091   12.4668   25.3575 C   0  0  0  0  0  0  0  0  0  0  0  0
    8.3725   12.1294   24.4503 C   0  0  0  0  0  0  0  0  0  0  0  0
    8.9809   12.9287   23.5924 O   0  0  0  0  0  0  0  0  0  0  0  0
    8.5483   10.7739   24.5662 N   0  0  0  0  0  0  0  0  0  0  0  0
    9.3511    9.9267   23.7128 C   0  0  0  0  0  0  0  0  0  0  0  0
    7.7254   10.2156   25.5088 N   0  0  0  0  0  0  0  0  0  0  0  0
  1  2  1  0
  2  3  1  0
  3  4  1  0
  4  5  2  0
  4  6  1  0
  6  7  1  0
  7  8  2  0
  8  9  1  0
  8 10  1  0
 10 11  1  0
 10 12  1  0
 12  6  2  0
M  END
>  <tags>  (359) 
{'openbind_a71ev2a_c1_knitwork_pure', 'fragmenstein_placed'}

>  <distance_score>  (359) 
0.91786

>  <ref_mols>  (359) 
A0556a,A3435a

>  <smiles>  (359) 
CCNC(=O)c1cc(O)n(C)n1

>  <HIPPO Pose ID>  (359) 
310919

>  <inchikey>  (359) 
XQFDTTICYWSLGR-UHFFFAOYSA-N

>  <ref_pdb>  (359) 
A1140a

>  <alias>  (359) 
C55396-P28

>  <energy_score>  (359) 
-9.305657

>  <HIPPO Compound ID>  (359) 
55396

$$$$
C72721-P564
     RDKit          3D

 18 20  0  0  0  0  0  0  0  0999 V2000
   10.0579   14.6036   25.3954 O   0  0  0  0  0  0  0  0  0  0  0  0
   10.0287   13.8951   24.1340 S   0  0  0  0  0  0  0  0  0  0  0  0
   10.9146   12.7719   23.9242 O   0  0  0  0  0  0  0  0  0  0  0  0
   10.3354   14.9787   22.9031 N   0  0  0  0  0  0  0  0  0  0  0  0
   11.7064   15.4920   22.8874 C   0  0  0  0  0  0  0  0  0  0  0  0
   11.9081   15.9296   21.4663 C   0  0  0  0  0  0  0  0  0  0  0  0
   11.2480   14.8299   20.6825 C   0  0  0  0  0  0  0  0  0  0  0  0
   10.0038   14.5522   21.5085 C   0  0  0  0  0  0  0  0  0  0  0  0
    8.4296   13.5494   23.7223 N   0  0  0  0  0  0  0  0  0  0  0  0
    7.3604   14.4679   24.2143 C   0  0  0  0  0  0  0  0  0  0  0  0
    6.5379   13.6396   25.2345 C   0  0  0  0  0  0  0  0  0  0  0  0
    6.9695   12.2389   24.9399 C   0  0  0  0  0  0  0  0  0  0  0  0
    6.5304   11.0359   25.4504 C   0  0  0  0  0  0  0  0  0  0  0  0
    7.1823    9.8678   25.0264 C   0  0  0  0  0  0  0  0  0  0  0  0
    8.2393    9.9192   24.1094 C   0  0  0  0  0  0  0  0  0  0  0  0
    9.2189    8.4412   23.5207 Br  0  0  0  0  0  0  0  0  0  0  0  0
    8.6577   11.1177   23.5999 C   0  0  0  0  0  0  0  0  0  0  0  0
    8.0365   12.2466   24.0600 C   0  0  0  0  0  0  0  0  0  0  0  0
  1  2  2  0
  2  3  2  0
  2  4  1  0
  4  5  1  0
  5  6  1  0
  6  7  1  0
  7  8  1  0
  2  9  1  0
  9 10  1  0
 10 11  1  0
 11 12  1  0
 12 13  2  0
 13 14  1  0
 14 15  2  0
 15 16  1  0
 15 17  1  0
 17 18  2  0
  8  4  1  0
 18  9  1  0
 18 12  1  0
M  END
>  <tags>  (360) 
{'openbind_a71ev2a_c1_knitwork_pure', 'fragmenstein_placed'}

>  <distance_score>  (360) 
0.793288

>  <ref_mols>  (360) 
A1778a,A5091a

>  <smiles>  (360) 
O=S(=O)(N1CCCC1)N1CCc2ccc(Br)cc21

>  <HIPPO Pose ID>  (360) 
311005

>  <inchikey>  (360) 
LYKXFHHASTVORN-UHFFFAOYSA-N

>  <ref_pdb>  (360) 
A1140a

>  <alias>  (360) 
C72721-P564

>  <energy_score>  (360) 
-44.61248

>  <HIPPO Compound ID>  (360) 
72721

$$$$
C45903-P364
     RDKit          3D

 21 23  0  0  0  0  0  0  0  0999 V2000
   26.3326   19.1438   26.3833 O   0  0  0  0  0  0  0  0  0  0  0  0
   25.9609   18.3759   25.2307 C   0  0  2  0  0  0  0  0  0  0  0  0
   25.2807   19.2932   24.2054 C   0  0  0  0  0  0  0  0  0  0  0  0
   25.1394   18.6600   22.8194 C   0  0  0  0  0  0  0  0  0  0  0  0
   26.2536   18.9181   21.9231 N   0  0  0  0  0  0  0  0  0  0  0  0
   26.5461   20.1670   21.4037 C   0  0  0  0  0  0  0  0  0  0  0  0
   25.6464   21.1803   21.4449 C   0  0  0  0  0  0  0  0  0  0  0  0
   26.1604   22.3913   21.1186 C   0  0  0  0  0  0  0  0  0  0  0  0
   27.4185   22.6390   20.7418 N   0  0  0  0  0  0  0  0  0  0  0  0
   28.2079   21.5824   20.5847 C   0  0  0  0  0  0  0  0  0  0  0  0
   29.4750   21.8205   20.0470 N   0  0  0  0  0  0  0  0  0  0  0  0
   30.2983   20.6612   19.7733 C   0  0  0  0  0  0  0  0  0  0  0  0
   31.4626   21.0423   18.8617 C   0  0  0  0  0  0  0  0  0  0  0  0
   32.2659   22.1946   19.4508 C   0  0  0  0  0  0  0  0  0  0  0  0
   31.3635   23.3788   19.7781 C   0  0  0  0  0  0  0  0  0  0  0  0
   30.1583   22.9731   20.6338 C   0  0  0  0  0  0  0  0  0  0  0  0
   27.7748   20.3421   20.8685 N   0  0  0  0  0  0  0  0  0  0  0  0
   25.0558   17.2215   25.6650 C   0  0  0  0  0  0  0  0  0  0  0  0
   23.7916   17.5102   26.5242 C   0  0  0  0  0  0  0  0  0  0  0  0
   24.0580   16.1660   27.2331 C   0  0  0  0  0  0  0  0  0  0  0  0
   25.5423   16.3360   26.8476 C   0  0  0  0  0  0  0  0  0  0  0  0
  2  1  1  1
  2  3  1  0
  3  4  1  0
  4  5  1  0
  5  6  1  0
  6  7  2  0
  7  8  1  0
  8  9  2  0
  9 10  1  0
 10 11  1  0
 11 12  1  0
 12 13  1  0
 13 14  1  0
 14 15  1  0
 15 16  1  0
 10 17  2  0
  2 18  1  0
 18 19  1  0
 19 20  1  0
 20 21  1  0
 17  6  1  0
 21 18  1  0
 16 11  1  0
M  END
>  <tags>  (361) 
{'openbind_a71ev2a_c1_knitwork_pure', 'fragmenstein_placed'}

>  <distance_score>  (361) 
0.620658

>  <ref_mols>  (361) 
A4445b,A1146a

>  <smiles>  (361) 
O[C@H](CCNc1ccnc(N2CCCCC2)n1)C1CCC1

>  <HIPPO Pose ID>  (361) 
311124

>  <inchikey>  (361) 
QGVOJAWYYQCOKY-UHFFFAOYSA-N

>  <ref_pdb>  (361) 
A1140a

>  <alias>  (361) 
C45903-P364

>  <energy_score>  (361) 
-46.178889

>  <HIPPO Compound ID>  (361) 
45903

$$$$
C19322-P234
     RDKit          3D

 13 13  0  0  0  0  0  0  0  0999 V2000
    5.7035   15.3902   21.7721 N   0  0  0  0  0  0  0  0  0  0  0  0
    7.0739   14.6798   22.4512 S   0  0  0  0  0  0  0  0  0  0  0  0
    8.2100   15.3869   21.9202 O   0  0  0  0  0  0  0  0  0  0  0  0
    6.8866   13.2570   22.2743 O   0  0  0  0  0  0  0  0  0  0  0  0
    6.7794   15.1864   24.1324 C   0  0  0  0  0  0  0  0  0  0  0  0
    7.7920   14.6913   25.1408 C   0  0  0  0  0  0  0  0  0  0  0  0
    7.5366   13.2521   25.5679 C   0  0  0  0  0  0  0  0  0  0  0  0
    8.1398   12.2013   24.7845 N   0  0  0  0  0  0  0  0  0  0  0  0
    7.6960   10.8529   24.9740 C   0  0  0  0  0  0  0  0  0  0  0  0
    8.5987    9.9985   24.1294 C   0  0  0  0  0  0  0  0  0  0  0  0
    9.6317   10.9102   23.5361 C   0  0  0  0  0  0  0  0  0  0  0  0
    9.3877   12.2307   24.1851 C   0  0  0  0  0  0  0  0  0  0  0  0
   10.1905   13.1443   24.1821 O   0  0  0  0  0  0  0  0  0  0  0  0
  1  2  1  0
  2  3  2  0
  2  4  2  0
  2  5  1  0
  5  6  1  0
  6  7  1  0
  7  8  1  0
  8  9  1  0
  9 10  1  0
 10 11  1  0
 11 12  1  0
 12 13  2  0
 12  8  1  0
M  END
>  <tags>  (362) 
{'openbind_a71ev2a_c1_knitwork_pure', 'fragmenstein_placed'}

>  <distance_score>  (362) 
0.783359

>  <ref_mols>  (362) 
A3895a,A0719a

>  <smiles>  (362) 
NS(=O)(=O)CCCN1CCCC1=O

>  <HIPPO Pose ID>  (362) 
311364

>  <inchikey>  (362) 
VOCNZKAZPJNZLB-UHFFFAOYSA-N

>  <ref_pdb>  (362) 
A1140a

>  <alias>  (362) 
C19322-P234

>  <energy_score>  (362) 
-20.759882

>  <HIPPO Compound ID>  (362) 
45756

$$$$
C129526-P38
     RDKit          3D

 22 24  0  0  0  0  0  0  0  0999 V2000
   20.2668   12.2848   -2.6982 C   0  0  0  0  0  0  0  0  0  0  0  0
   19.3847   13.5069   -2.5665 C   0  0  0  0  0  0  0  0  0  0  0  0
   18.4638   13.7128   -3.2515 O   0  0  0  0  0  0  0  0  0  0  0  0
   19.9570   14.3238   -1.3844 N   0  0  0  0  0  0  0  0  0  0  0  0
   19.5726   15.6048   -0.8642 C   0  0  0  0  0  0  0  0  0  0  0  0
   18.3201   15.4301   -0.0070 C   0  0  2  0  0  0  0  0  0  0  0  0
   18.3642   16.2395    1.3246 C   0  0  0  0  0  0  0  0  0  0  0  0
   18.7623   14.9367    2.0514 C   0  0  2  0  0  0  0  0  0  0  0  0
   20.1863   14.6344    2.1502 N   0  0  0  0  0  0  0  0  0  0  0  0
   21.4140   15.5831    2.2984 C   0  0  0  0  0  0  0  0  0  0  0  0
   21.4747   16.7516    2.2860 O   0  0  0  0  0  0  0  0  0  0  0  0
   22.6282   14.6908    2.5699 C   0  0  0  0  0  0  0  0  0  0  0  0
   22.9639   13.8631    1.3899 C   0  0  0  0  0  0  0  0  0  0  0  0
   22.2387   13.6720    0.3057 N   0  0  0  0  0  0  0  0  0  0  0  0
   22.9571   12.8930   -0.5658 N   0  0  0  0  0  0  0  0  0  0  0  0
   24.0962   12.5901    0.0177 C   0  0  0  0  0  0  0  0  0  0  0  0
   24.1039   13.1182    1.2796 N   0  0  0  0  0  0  0  0  0  0  0  0
   25.1777   12.9618    2.2371 C   0  0  0  0  0  0  0  0  0  0  0  0
   26.1763   11.8801    1.8205 C   0  0  0  0  0  0  0  0  0  0  0  0
   26.4923   11.9722    0.3257 C   0  0  0  0  0  0  0  0  0  0  0  0
   25.2280   11.7955   -0.5200 C   0  0  0  0  0  0  0  0  0  0  0  0
   18.0967   14.1716    0.8881 C   0  0  0  0  0  0  0  0  0  0  0  0
  1  2  1  0
  2  3  2  0
  2  4  1  0
  4  5  1  0
  6  5  1  1
  6  7  1  0
  7  8  1  0
  8  9  1  6
  9 10  1  0
 10 11  2  0
 10 12  1  0
 12 13  1  0
 13 14  2  0
 14 15  1  0
 15 16  2  0
 16 17  1  0
 17 18  1  0
 18 19  1  0
 19 20  1  0
 20 21  1  0
  8 22  1  0
 22  6  1  0
 17 13  1  0
 21 16  1  0
M  END
>  <tags>  (363) 
{'openbind_a71ev2a_c1_knitwork_pure', 'fragmenstein_placed'}

>  <distance_score>  (363) 
0.972605

>  <ref_mols>  (363) 
A0239a,A0608a

>  <smiles>  (363) 
CC(=O)NC[C@H]1C[C@@H](NC(=O)Cc2nnc3n2CCCC3)C1

>  <HIPPO Pose ID>  (363) 
312424

>  <inchikey>  (363) 
JRIXZBVWMSAORN-UHFFFAOYSA-N

>  <ref_pdb>  (363) 
A1140a

>  <alias>  (363) 
C129526-P38

>  <energy_score>  (363) 
-2.783011

>  <HIPPO Compound ID>  (363) 
129526

$$$$
C129593-P51
     RDKit          3D

 22 24  0  0  0  0  0  0  0  0999 V2000
   19.5807   13.2552    3.3595 O   0  0  0  0  0  0  0  0  0  0  0  0
   19.8437   14.2872    2.8867 C   0  0  0  0  0  0  0  0  0  0  0  0
   18.8120   15.2759    2.3321 C   0  0  0  0  0  0  0  0  0  0  0  0
   17.3554   14.8004    2.3278 C   0  0  0  0  0  0  0  0  0  0  0  0
   17.1427   13.3532    1.9024 C   0  0  1  0  0  0  0  0  0  0  0  0
   15.7593   13.0226    1.3802 C   0  0  0  0  0  0  0  0  0  0  0  0
   16.0303   11.6925    0.7151 C   0  0  0  0  0  0  0  0  0  0  0  0
   17.4410   11.8526    0.1750 C   0  0  0  0  0  0  0  0  0  0  0  0
   18.0213   12.9896    0.8322 O   0  0  0  0  0  0  0  0  0  0  0  0
   21.2194   14.9267    2.5754 N   0  0  0  0  0  0  0  0  0  0  0  0
   22.5594   14.3835    2.6958 C   0  0  0  0  0  0  0  0  0  0  0  0
   23.2206   14.1741    1.2997 C   0  0  2  0  0  0  0  0  0  0  0  0
   23.8568   15.4256    0.9672 O   0  0  0  0  0  0  0  0  0  0  0  0
   22.1550   13.8876    0.2111 C   0  0  0  0  0  0  0  0  0  0  0  0
   22.7904   13.6242   -1.1449 C   0  0  0  0  0  0  0  0  0  0  0  0
   23.6455   12.3751   -1.0846 C   0  0  0  0  0  0  0  0  0  0  0  0
   24.5656   12.3536    0.1073 C   0  0  0  0  0  0  0  0  0  0  0  0
   25.6515   11.4669    0.0602 C   0  0  0  0  0  0  0  0  0  0  0  0
   26.5184   11.3535    1.1395 C   0  0  0  0  0  0  0  0  0  0  0  0
   26.3000   12.1098    2.2836 C   0  0  0  0  0  0  0  0  0  0  0  0
   25.2285   13.0025    2.3423 C   0  0  0  0  0  0  0  0  0  0  0  0
   24.3400   13.1415    1.2617 C   0  0  0  0  0  0  0  0  0  0  0  0
  1  2  2  0
  2  3  1  0
  3  4  1  0
  5  4  1  6
  5  6  1  0
  6  7  1  0
  7  8  1  0
  8  9  1  0
  2 10  1  0
 10 11  1  0
 11 12  1  0
 12 13  1  6
 12 14  1  0
 14 15  1  0
 15 16  1  0
 16 17  1  0
 17 18  2  0
 18 19  1  0
 19 20  2  0
 20 21  1  0
 21 22  2  0
  9  5  1  0
 22 12  1  0
 22 17  1  0
M  END
>  <tags>  (364) 
{'openbind_a71ev2a_c1_knitwork_pure', 'fragmenstein_placed'}

>  <distance_score>  (364) 
0.991159

>  <ref_mols>  (364) 
A0239a,A0608a

>  <smiles>  (364) 
O=C(CC[C@H]1CCCO1)NC[C@]1(O)CCCc2ccccc21

>  <HIPPO Pose ID>  (364) 
312537

>  <inchikey>  (364) 
KRFRNBXJSXYDDU-UHFFFAOYSA-N

>  <ref_pdb>  (364) 
A1140a

>  <alias>  (364) 
C129593-P51

>  <energy_score>  (364) 
-7.115347

>  <HIPPO Compound ID>  (364) 
129593

$$$$
C69074-P201
     RDKit          3D

 17 19  0  0  0  0  0  0  0  0999 V2000
    9.4325   13.7594   25.2768 O   0  0  0  0  0  0  0  0  0  0  0  0
    8.5178   13.3671   24.5576 C   0  0  0  0  0  0  0  0  0  0  0  0
    8.2101   13.8172   23.1389 C   0  0  0  0  0  0  0  0  0  0  0  0
    9.2321   14.7186   22.6035 N   0  0  0  0  0  0  0  0  0  0  0  0
    8.8683   15.2175   21.2775 C   0  0  0  0  0  0  0  0  0  0  0  0
   10.1679   15.7638   20.7169 C   0  0  0  0  0  0  0  0  0  0  0  0
   11.2700   15.0449   21.4817 C   0  0  0  0  0  0  0  0  0  0  0  0
   10.5490   14.1010   22.4322 C   0  0  0  0  0  0  0  0  0  0  0  0
    7.5920   12.3712   25.1205 C   0  0  0  0  0  0  0  0  0  0  0  0
    7.7072   11.0233   24.7454 C   0  0  0  0  0  0  0  0  0  0  0  0
    6.9122   10.0622   25.3728 C   0  0  0  0  0  0  0  0  0  0  0  0
    6.0673   10.4633   26.3920 C   0  0  0  0  0  0  0  0  0  0  0  0
    5.9440   11.8115   26.7337 C   0  0  0  0  0  0  0  0  0  0  0  0
    6.6861   12.7881   26.0999 C   0  0  0  0  0  0  0  0  0  0  0  0
    4.9386   11.9522   27.8270 C   0  0  0  0  0  0  0  0  0  0  0  0
    4.8131   10.4810   28.2734 C   0  0  0  0  0  0  0  0  0  0  0  0
    5.1744    9.6574   27.1180 N   0  0  0  0  0  0  0  0  0  0  0  0
  1  2  2  0
  2  3  1  0
  3  4  1  0
  4  5  1  0
  5  6  1  0
  6  7  1  0
  7  8  1  0
  2  9  1  0
  9 10  2  0
 10 11  1  0
 11 12  2  0
 12 13  1  0
 13 14  2  0
 13 15  1  0
 15 16  1  0
 16 17  1  0
  8  4  1  0
 14  9  1  0
 17 12  1  0
M  END
>  <tags>  (365) 
{'openbind_a71ev2a_c1_knitwork_pure', 'fragmenstein_placed'}

>  <distance_score>  (365) 
0.7996

>  <ref_mols>  (365) 
A3634a,A1778a

>  <smiles>  (365) 
O=C(CN1CCCC1)c1ccc2c(c1)CCN2

>  <HIPPO Pose ID>  (365) 
313133

>  <inchikey>  (365) 
UJUZDCBLGJJXRQ-UHFFFAOYSA-N

>  <ref_pdb>  (365) 
A1140a

>  <alias>  (365) 
C69074-P201

>  <energy_score>  (365) 
-24.654687

>  <HIPPO Compound ID>  (365) 
69074

$$$$
C51875-P364
     RDKit          3D

 13 13  0  0  0  0  0  0  0  0999 V2000
    9.8055    9.3127   23.1216 C   0  0  0  0  0  0  0  0  0  0  0  0
    9.9930   10.6983   22.9404 O   0  0  0  0  0  0  0  0  0  0  0  0
    9.4293   11.4621   23.9248 C   0  0  0  0  0  0  0  0  0  0  0  0
    8.4698   10.9091   24.7049 N   0  0  0  0  0  0  0  0  0  0  0  0
    7.8273   11.7260   25.5561 C   0  0  0  0  0  0  0  0  0  0  0  0
    8.1212   13.0757   25.7127 C   0  0  0  0  0  0  0  0  0  0  0  0
    7.3877   13.9486   26.7061 C   0  0  2  0  0  0  0  0  0  0  0  0
    5.9825   13.4797   27.0867 C   0  0  0  0  0  0  0  0  0  0  0  0
    7.2611   15.3737   26.2157 C   0  0  0  0  0  0  0  0  0  0  0  0
    7.8420   16.3127   26.7527 O   0  0  0  0  0  0  0  0  0  0  0  0
    9.1724   13.5917   24.9359 C   0  0  0  0  0  0  0  0  0  0  0  0
    9.8146   12.7886   24.0034 C   0  0  0  0  0  0  0  0  0  0  0  0
   11.0282   13.4674   22.9966 Cl  0  0  0  0  0  0  0  0  0  0  0  0
  1  2  1  0
  2  3  1  0
  3  4  2  0
  4  5  1  0
  5  6  2  0
  6  7  1  0
  7  8  1  6
  7  9  1  0
  9 10  2  0
  6 11  1  0
 11 12  2  0
 12 13  1  0
 12  3  1  0
M  END
>  <tags>  (366) 
{'openbind_a71ev2a_c1_knitwork_pure', 'fragmenstein_placed'}

>  <distance_score>  (366) 
0.812445

>  <ref_mols>  (366) 
A4445b,A2629a

>  <smiles>  (366) 
COc1ncc([C@H](C)C=O)cc1Cl

>  <HIPPO Pose ID>  (366) 
313510

>  <inchikey>  (366) 
UZTGHTCNTUSHGZ-UHFFFAOYSA-N

>  <ref_pdb>  (366) 
A1140a

>  <alias>  (366) 
C51875-P364

>  <energy_score>  (366) 
-7.319087

>  <HIPPO Compound ID>  (366) 
51875

$$$$
C51496-P390
     RDKit          3D

 21 22  0  0  0  0  0  0  0  0999 V2000
    9.5167   15.1606   26.4849 C   0  0  0  0  0  0  0  0  0  0  0  0
    8.0972   14.7347   26.1593 C   0  0  0  0  0  0  0  0  0  0  0  0
    7.1976   15.9758   26.0869 C   0  0  0  0  0  0  0  0  0  0  0  0
    7.9820   13.7616   24.9339 C   0  0  2  0  0  0  0  0  0  0  0  0
    7.9808   14.4466   23.5245 C   0  0  0  0  0  0  0  0  0  0  0  0
    9.2002   14.3169   22.6920 N   0  0  0  0  0  0  0  0  0  0  0  0
   10.4438   14.6618   23.3794 C   0  0  0  0  0  0  0  0  0  0  0  0
   11.6662   14.5279   22.4779 C   0  0  0  0  0  0  0  0  0  0  0  0
   11.5352   15.4298   21.2654 C   0  0  0  0  0  0  0  0  0  0  0  0
   10.2324   15.1382   20.5392 C   0  0  0  0  0  0  0  0  0  0  0  0
    9.0313   15.1609   21.4841 C   0  0  0  0  0  0  0  0  0  0  0  0
    6.7190   13.0402   25.1822 N   0  0  0  0  0  0  0  0  0  0  0  0
    6.9078   11.7922   25.9073 C   0  0  0  0  0  0  0  0  0  0  0  0
    5.8463   11.6094   26.9379 C   0  0  0  0  0  0  0  0  0  0  0  0
    5.7978   10.4322   27.6637 N   0  0  0  0  0  0  0  0  0  0  0  0
    4.7781   10.5948   28.4703 C   0  0  0  0  0  0  0  0  0  0  0  0
    4.1647   11.8028   28.3812 O   0  0  0  0  0  0  0  0  0  0  0  0
    4.8616   12.4648   27.3980 C   0  0  0  0  0  0  0  0  0  0  0  0
    4.4706   13.8590   27.0961 C   0  0  0  0  0  0  0  0  0  0  0  0
    4.3823   14.1084   25.7660 F   0  0  0  0  0  0  0  0  0  0  0  0
    3.2377   14.1438   27.6081 F   0  0  0  0  0  0  0  0  0  0  0  0
  1  2  1  0
  2  3  1  0
  2  4  1  0
  4  5  1  6
  5  6  1  0
  6  7  1  0
  7  8  1  0
  8  9  1  0
  9 10  1  0
 10 11  1  0
  4 12  1  0
 12 13  1  0
 13 14  1  0
 14 15  1  0
 15 16  2  0
 16 17  1  0
 17 18  1  0
 18 19  1  0
 19 20  1  0
 19 21  1  0
 11  6  1  0
 18 14  2  0
M  END
>  <tags>  (367) 
{'openbind_a71ev2a_c1_knitwork_pure', 'fragmenstein_placed'}

>  <distance_score>  (367) 
0.824666

>  <ref_mols>  (367) 
A3623a,A4524a

>  <smiles>  (367) 
CC(C)[C@H](CN1CCCCC1)NCc1ncoc1C(F)F

>  <HIPPO Pose ID>  (367) 
313623

>  <inchikey>  (367) 
BPSGCGHAXUTQSM-UHFFFAOYSA-N

>  <ref_pdb>  (367) 
A4333a

>  <alias>  (367) 
C51496-P390

>  <energy_score>  (367) 
-53.806018

>  <HIPPO Compound ID>  (367) 
74411

$$$$
C51516-P390
     RDKit          3D

 18 19  0  0  0  0  0  0  0  0999 V2000
    8.3358   14.9889   26.8492 C   0  0  0  0  0  0  0  0  0  0  0  0
    7.8830   15.1742   25.4069 C   0  0  0  0  0  0  0  0  0  0  0  0
    6.5410   15.9186   25.3789 C   0  0  0  0  0  0  0  0  0  0  0  0
    7.9173   13.8405   24.5950 C   0  0  2  0  0  0  0  0  0  0  0  0
    8.0008   14.1360   23.0671 C   0  0  0  0  0  0  0  0  0  0  0  0
    9.3324   14.2834   22.4486 N   0  0  0  0  0  0  0  0  0  0  0  0
   10.4476   14.6799   23.3015 C   0  0  0  0  0  0  0  0  0  0  0  0
   11.7653   14.6280   22.5347 C   0  0  0  0  0  0  0  0  0  0  0  0
   11.7195   15.5550   21.3343 C   0  0  0  0  0  0  0  0  0  0  0  0
   10.5278   15.2146   20.4530 C   0  0  0  0  0  0  0  0  0  0  0  0
    9.2321   15.1453   21.2571 C   0  0  0  0  0  0  0  0  0  0  0  0
    6.7734   12.9584   24.8548 N   0  0  0  0  0  0  0  0  0  0  0  0
    7.0259   11.9304   25.8520 C   0  0  0  0  0  0  0  0  0  0  0  0
    5.9173   11.7999   26.8216 C   0  0  0  0  0  0  0  0  0  0  0  0
    5.3736   10.7492   27.5211 C   0  0  0  0  0  0  0  0  0  0  0  0
    4.3471   11.1977   28.3129 N   0  0  0  0  0  0  0  0  0  0  0  0
    4.3174   12.4923   28.0713 C   0  0  0  0  0  0  0  0  0  0  0  0
    5.2450   12.9354   27.1873 O   0  0  0  0  0  0  0  0  0  0  0  0
  1  2  1  0
  2  3  1  0
  2  4  1  0
  4  5  1  6
  5  6  1  0
  6  7  1  0
  7  8  1  0
  8  9  1  0
  9 10  1  0
 10 11  1  0
  4 12  1  0
 12 13  1  0
 13 14  1  0
 14 15  2  0
 15 16  1  0
 16 17  2  0
 17 18  1  0
 11  6  1  0
 18 14  1  0
M  END
>  <tags>  (368) 
{'openbind_a71ev2a_c1_knitwork_pure', 'fragmenstein_placed'}

>  <distance_score>  (368) 
0.875447

>  <ref_mols>  (368) 
A3623a,A4524a

>  <smiles>  (368) 
CC(C)[C@H](CN1CCCCC1)NCc1cnco1

>  <HIPPO Pose ID>  (368) 
313638

>  <inchikey>  (368) 
OGTRECUNLRMNFU-UHFFFAOYSA-N

>  <ref_pdb>  (368) 
A4333a

>  <alias>  (368) 
C51516-P390

>  <energy_score>  (368) 
-39.875163

>  <HIPPO Compound ID>  (368) 
50762

$$$$
C51403-P239
     RDKit          3D

 21 21  0  0  0  0  0  0  0  0999 V2000
    8.7077   15.3929   21.4617 C   0  0  0  0  0  0  0  0  0  0  0  0
    9.9678   15.3082   22.3099 C   0  0  0  0  0  0  0  0  0  0  0  0
   11.1302   14.7512   21.4993 C   0  0  0  0  0  0  0  0  0  0  0  0
    9.7016   14.5006   23.5894 C   0  0  0  0  0  0  0  0  0  0  0  0
    9.3666   13.1318   23.3039 O   0  0  0  0  0  0  0  0  0  0  0  0
    8.6400   12.5086   24.2961 C   0  0  0  0  0  0  0  0  0  0  0  0
    8.4530   11.1349   24.2150 C   0  0  0  0  0  0  0  0  0  0  0  0
    7.5795   10.5117   25.1194 C   0  0  0  0  0  0  0  0  0  0  0  0
    6.9291   11.2869   26.0689 C   0  0  0  0  0  0  0  0  0  0  0  0
    5.9547   10.7810   26.9231 N   0  0  0  0  0  0  0  0  0  0  0  0
    5.3351   11.3835   28.2187 C   0  0  0  0  0  0  0  0  0  0  0  0
    5.6048   12.3569   28.8034 O   0  0  0  0  0  0  0  0  0  0  0  0
    4.1497   10.4907   28.5929 C   0  0  0  0  0  0  0  0  0  0  0  0
    3.3201   10.9153   29.8285 C   0  0  1  0  0  0  0  0  0  0  0  0
    3.1700   12.4261   30.0431 C   0  0  0  0  0  0  0  0  0  0  0  0
    1.9148   10.3331   29.7275 C   0  0  0  0  0  0  0  0  0  0  0  0
    1.2268   10.5128   30.8744 F   0  0  0  0  0  0  0  0  0  0  0  0
    1.9425    9.0084   29.4720 F   0  0  0  0  0  0  0  0  0  0  0  0
    1.2167   10.9170   28.7256 F   0  0  0  0  0  0  0  0  0  0  0  0
    7.2252   12.6430   26.1015 C   0  0  0  0  0  0  0  0  0  0  0  0
    8.0722   13.2582   25.2521 N   0  0  0  0  0  0  0  0  0  0  0  0
  1  2  1  0
  2  3  1  0
  2  4  1  0
  4  5  1  0
  5  6  1  0
  6  7  2  0
  7  8  1  0
  8  9  2  0
  9 10  1  0
 10 11  1  0
 11 12  2  0
 11 13  1  0
 13 14  1  0
 14 15  1  6
 14 16  1  0
 16 17  1  0
 16 18  1  0
 16 19  1  0
  9 20  1  0
 20 21  2  0
 21  6  1  0
M  END
>  <tags>  (369) 
{'openbind_a71ev2a_c1_knitwork_pure', 'fragmenstein_placed'}

>  <distance_score>  (369) 
0.838108

>  <ref_mols>  (369) 
A1445a,A3920a

>  <smiles>  (369) 
CC(C)COc1ccc(NC(=O)C[C@@H](C)C(F)(F)F)cn1

>  <HIPPO Pose ID>  (369) 
314857

>  <inchikey>  (369) 
ZIEZQKTWDSPKJB-UHFFFAOYSA-N

>  <ref_pdb>  (369) 
A4333a

>  <alias>  (369) 
C51403-P239

>  <energy_score>  (369) 
-27.235085

>  <HIPPO Compound ID>  (369) 
66538

$$$$
C28118-P252
     RDKit          3D

 15 17  0  0  0  0  0  0  0  0999 V2000
    7.7236   14.1767   23.5257 O   0  0  0  0  0  0  0  0  0  0  0  0
    8.6579   13.5313   23.9961 C   0  0  0  0  0  0  0  0  0  0  0  0
   10.0028   14.1888   24.2935 C   0  0  0  0  0  0  0  0  0  0  0  0
   11.0008   14.1472   23.1486 C   0  0  0  0  0  0  0  0  0  0  0  0
   10.8635   15.2265   22.1222 C   0  0  2  0  0  0  0  0  0  0  0  0
    9.6891   16.1635   21.9780 C   0  0  0  0  0  0  0  0  0  0  0  0
    9.8528   15.0333   21.0063 C   0  0  1  0  0  0  0  0  0  0  0  0
   10.1502   15.3004   19.5469 C   0  0  0  0  0  0  0  0  0  0  0  0
   11.2485   14.5707   18.8138 C   0  0  0  0  0  0  0  0  0  0  0  0
   11.3634   16.0166   19.0835 C   0  0  0  0  0  0  0  0  0  0  0  0
    8.4562   12.1299   24.3308 C   0  0  0  0  0  0  0  0  0  0  0  0
    9.3024   11.0231   24.1472 C   0  0  0  0  0  0  0  0  0  0  0  0
    8.7446    9.8777   24.5417 N   0  0  0  0  0  0  0  0  0  0  0  0
    7.5431   10.2440   24.9974 N   0  0  0  0  0  0  0  0  0  0  0  0
    7.3138   11.5805   24.8822 C   0  0  0  0  0  0  0  0  0  0  0  0
  1  2  2  0
  2  3  1  0
  3  4  1  0
  5  4  1  1
  5  6  1  0
  6  7  1  0
  7  8  1  6
  8  9  1  0
  9 10  1  0
  2 11  1  0
 11 12  1  0
 12 13  2  0
 13 14  1  0
 14 15  1  0
  7  5  1  0
 10  8  1  0
 15 11  2  0
M  END
>  <tags>  (370) 
{'openbind_a71ev2a_c1_knitwork_pure', 'fragmenstein_placed'}

>  <distance_score>  (370) 
0.958944

>  <ref_mols>  (370) 
A3975a,A0556a

>  <smiles>  (370) 
O=C(CC[C@@H]1C[C@H]1C1CC1)c1cn[nH]c1

>  <HIPPO Pose ID>  (370) 
315696

>  <inchikey>  (370) 
BVUAKSYIXAEYKA-UHFFFAOYSA-N

>  <ref_pdb>  (370) 
A4333a

>  <alias>  (370) 
C28118-P252

>  <energy_score>  (370) 
-13.520937

>  <HIPPO Compound ID>  (370) 
50711

$$$$
C81569-P109
     RDKit          3D

 22 25  0  0  0  0  0  0  0  0999 V2000
   23.3974   19.4244   20.7357 O   0  0  0  0  0  0  0  0  0  0  0  0
   23.3142   20.4305   21.3292 C   0  0  0  0  0  0  0  0  0  0  0  0
   24.3943   21.4948   21.6604 N   0  0  0  0  0  0  0  0  0  0  0  0
   25.7238   21.5848   21.2651 C   0  0  0  0  0  0  0  0  0  0  0  0
   26.3567   20.6175   20.5279 C   0  0  0  0  0  0  0  0  0  0  0  0
   27.6093   20.7419   20.0401 N   0  0  0  0  0  0  0  0  0  0  0  0
   28.2762   21.8772   20.3037 C   0  0  0  0  0  0  0  0  0  0  0  0
   29.4978   22.1014   19.6711 N   0  0  0  0  0  0  0  0  0  0  0  0
   30.1587   20.8914   19.1726 C   0  0  0  0  0  0  0  0  0  0  0  0
   31.4317   21.2360   18.3722 C   0  0  0  0  0  0  0  0  0  0  0  0
   32.3660   22.1164   19.1073 N   0  0  0  0  0  0  0  0  0  0  0  0
   31.6298   23.3396   19.4911 C   0  0  0  0  0  0  0  0  0  0  0  0
   30.3663   23.0686   20.3397 C   0  0  0  0  0  0  0  0  0  0  0  0
   27.7584   22.8494   21.0841 N   0  0  0  0  0  0  0  0  0  0  0  0
   26.4995   22.6821   21.5418 C   0  0  0  0  0  0  0  0  0  0  0  0
   21.9595   20.8789   21.9601 C   0  0  1  0  0  0  0  0  0  0  0  0
   21.5802   22.3978   22.0247 C   0  0  0  0  0  0  0  0  0  0  0  0
   20.1073   21.9887   21.7877 C   0  0  0  0  0  0  0  0  0  0  0  0
   20.6690   20.7221   21.1721 C   0  0  0  0  0  0  0  0  0  0  0  0
   20.6533   20.6390   19.6576 C   0  0  0  0  0  0  0  0  0  0  0  0
   19.4063   19.7307   19.8189 C   0  0  0  0  0  0  0  0  0  0  0  0
   19.8607   19.4536   21.2764 C   0  0  0  0  0  0  0  0  0  0  0  0
  1  2  2  0
  2  3  1  0
  3  4  1  0
  4  5  2  0
  5  6  1  0
  6  7  2  0
  7  8  1  0
  8  9  1  0
  9 10  1  0
 10 11  1  0
 11 12  1  0
 12 13  1  0
  7 14  1  0
 14 15  2  0
 16  2  1  6
 16 17  1  0
 17 18  1  0
 18 19  1  0
 19 20  1  0
 20 21  1  0
 21 22  1  0
 15  4  1  0
 19 16  1  0
 13  8  1  0
 22 19  1  0
M  END
>  <tags>  (371) 
{'openbind_a71ev2a_c1_knitwork_pure', 'fragmenstein_placed'}

>  <distance_score>  (371) 
0.530074

>  <ref_mols>  (371) 
A1146a,A0469a

>  <smiles>  (371) 
O=C(Nc1cnc(N2CCNCC2)nc1)[C@H]1CCC12CCC2

>  <HIPPO Pose ID>  (371) 
316234

>  <inchikey>  (371) 
BYIBJOZHQLWVOG-UHFFFAOYSA-N

>  <ref_pdb>  (371) 
A4333a

>  <alias>  (371) 
C81569-P109

>  <energy_score>  (371) 
-46.162898

>  <HIPPO Compound ID>  (371) 
47371

$$$$
C51862-P405
     RDKit          3D

 11 11  0  0  0  0  0  0  0  0999 V2000
    8.7637   14.6327   25.3706 C   0  0  0  0  0  0  0  0  0  0  0  0
    7.8753   13.7996   24.4655 C   0  0  1  0  0  0  0  0  0  0  0  0
    7.9507   14.2412   23.0196 C   0  0  0  0  0  0  0  0  0  0  0  0
    7.4686   13.5983   22.0863 O   0  0  0  0  0  0  0  0  0  0  0  0
    8.1211   12.3209   24.6170 C   0  0  0  0  0  0  0  0  0  0  0  0
    7.1830   11.6543   25.3360 N   0  0  0  0  0  0  0  0  0  0  0  0
    7.2621   10.3130   25.3489 C   0  0  0  0  0  0  0  0  0  0  0  0
    8.2569    9.5888   24.7141 C   0  0  0  0  0  0  0  0  0  0  0  0
    9.2477   10.2782   24.0347 C   0  0  0  0  0  0  0  0  0  0  0  0
    9.1852   11.6621   23.9920 C   0  0  0  0  0  0  0  0  0  0  0  0
   10.1480   12.3626   23.3294 O   0  0  0  0  0  0  0  0  0  0  0  0
  2  1  1  1
  2  3  1  0
  3  4  2  0
  2  5  1  0
  5  6  2  0
  6  7  1  0
  7  8  2  0
  8  9  1  0
  9 10  2  0
 10 11  1  0
 10  5  1  0
M  END
>  <tags>  (372) 
{'openbind_a71ev2a_c1_knitwork_pure', 'fragmenstein_placed'}

>  <distance_score>  (372) 
0.859254

>  <ref_mols>  (372) 
A3564a,A4570a

>  <smiles>  (372) 
C[C@@H](C=O)c1ncccc1O

>  <HIPPO Pose ID>  (372) 
316671

>  <inchikey>  (372) 
DBYAVWKCAUZJRJ-UHFFFAOYSA-N

>  <ref_pdb>  (372) 
A4333a

>  <alias>  (372) 
C51862-P405

>  <energy_score>  (372) 
-20.346979

>  <HIPPO Compound ID>  (372) 
75048

$$$$
C29316-P225
     RDKit          3D

 18 20  0  0  0  0  0  0  0  0999 V2000
    9.2366    9.5435   23.4352 O   0  0  0  0  0  0  0  0  0  0  0  0
    8.8175   10.6048   23.8294 C   0  0  0  0  0  0  0  0  0  0  0  0
    9.3407   12.0148   23.4907 C   0  0  0  0  0  0  0  0  0  0  0  0
   10.3282   12.2171   22.8284 O   0  0  0  0  0  0  0  0  0  0  0  0
    8.4747   12.9046   24.0988 N   0  0  0  0  0  0  0  0  0  0  0  0
    8.4667   14.3537   24.0081 C   0  0  0  0  0  0  0  0  0  0  0  0
    9.4778   15.1132   23.1288 C   0  0  1  0  0  0  0  0  0  0  0  0
   10.9270   15.0314   23.6337 C   0  0  0  0  0  0  0  0  0  0  0  0
   11.8851   15.7121   22.6627 C   0  0  0  0  0  0  0  0  0  0  0  0
   11.6432   15.2989   21.2193 C   0  0  0  0  0  0  0  0  0  0  0  0
   10.2700   15.6333   20.8430 N   0  0  0  0  0  0  0  0  0  0  0  0
    9.3223   14.8421   21.6233 C   0  0  0  0  0  0  0  0  0  0  0  0
    7.5217   12.1941   24.8597 C   0  0  0  0  0  0  0  0  0  0  0  0
    6.5170   12.6809   25.6753 C   0  0  0  0  0  0  0  0  0  0  0  0
    5.7164   11.7551   26.3608 C   0  0  0  0  0  0  0  0  0  0  0  0
    5.9150   10.3703   26.2109 C   0  0  0  0  0  0  0  0  0  0  0  0
    6.9132    9.8914   25.3690 C   0  0  0  0  0  0  0  0  0  0  0  0
    7.6965   10.8221   24.7269 C   0  0  0  0  0  0  0  0  0  0  0  0
  1  2  2  0
  2  3  1  0
  3  4  2  0
  3  5  1  0
  5  6  1  0
  7  6  1  1
  7  8  1  0
  8  9  1  0
  9 10  1  0
 10 11  1  0
 11 12  1  0
  5 13  1  0
 13 14  2  0
 14 15  1  0
 15 16  2  0
 16 17  1  0
 17 18  2  0
 18  2  1  0
 12  7  1  0
 18 13  1  0
M  END
>  <tags>  (373) 
{'openbind_a71ev2a_c1_knitwork_pure', 'fragmenstein_placed'}

>  <distance_score>  (373) 
0.830034

>  <ref_mols>  (373) 
A3858a,A2513a

>  <smiles>  (373) 
O=C1C(=O)N(C[C@H]2CCCNC2)c2ccccc21

>  <HIPPO Pose ID>  (373) 
318031

>  <inchikey>  (373) 
DRKHZHCOCRWYTL-UHFFFAOYSA-N

>  <ref_pdb>  (373) 
A4333a

>  <alias>  (373) 
C29316-P225

>  <energy_score>  (373) 
-23.227159

>  <HIPPO Compound ID>  (373) 
51543

$$$$
C45903-P336
     RDKit          3D

 21 23  0  0  0  0  0  0  0  0999 V2000
   22.7083   20.5024   23.8666 O   0  0  0  0  0  0  0  0  0  0  0  0
   22.8563   20.2617   22.4625 C   0  0  1  0  0  0  0  0  0  0  0  0
   23.6054   18.9426   22.2681 C   0  0  0  0  0  0  0  0  0  0  0  0
   25.0725   19.0137   22.7211 C   0  0  0  0  0  0  0  0  0  0  0  0
   25.9152   19.4906   21.6383 N   0  0  0  0  0  0  0  0  0  0  0  0
   26.6174   20.6781   21.6796 C   0  0  0  0  0  0  0  0  0  0  0  0
   26.1487   21.7948   22.3215 C   0  0  0  0  0  0  0  0  0  0  0  0
   26.9251   22.9143   22.2276 C   0  0  0  0  0  0  0  0  0  0  0  0
   28.0919   22.9517   21.5737 N   0  0  0  0  0  0  0  0  0  0  0  0
   28.5095   21.8222   20.9775 C   0  0  0  0  0  0  0  0  0  0  0  0
   29.7730   21.8390   20.3602 N   0  0  0  0  0  0  0  0  0  0  0  0
   29.9774   20.7484   19.4147 C   0  0  0  0  0  0  0  0  0  0  0  0
   31.4281   20.7118   18.9377 C   0  0  0  0  0  0  0  0  0  0  0  0
   31.8643   22.0626   18.3853 C   0  0  0  0  0  0  0  0  0  0  0  0
   31.6251   23.1545   19.4204 C   0  0  0  0  0  0  0  0  0  0  0  0
   30.1732   23.1701   19.9003 C   0  0  0  0  0  0  0  0  0  0  0  0
   27.7777   20.6906   20.9958 N   0  0  0  0  0  0  0  0  0  0  0  0
   21.4714   20.3156   21.8214 C   0  0  0  0  0  0  0  0  0  0  0  0
   20.5760   19.0549   21.6697 C   0  0  0  0  0  0  0  0  0  0  0  0
   20.0735   19.6700   20.3442 C   0  0  0  0  0  0  0  0  0  0  0  0
   21.4072   20.4372   20.2759 C   0  0  0  0  0  0  0  0  0  0  0  0
  2  1  1  1
  2  3  1  0
  3  4  1  0
  4  5  1  0
  5  6  1  0
  6  7  2  0
  7  8  1  0
  8  9  2  0
  9 10  1  0
 10 11  1  0
 11 12  1  0
 12 13  1  0
 13 14  1  0
 14 15  1  0
 15 16  1  0
 10 17  2  0
  2 18  1  0
 18 19  1  0
 19 20  1  0
 20 21  1  0
 17  6  1  0
 21 18  1  0
 16 11  1  0
M  END
>  <tags>  (374) 
{'openbind_a71ev2a_c1_knitwork_pure', 'fragmenstein_placed'}

>  <distance_score>  (374) 
0.788615

>  <ref_mols>  (374) 
A4214a,A1146a

>  <smiles>  (374) 
O[C@@H](CCNc1ccnc(N2CCCCC2)n1)C1CCC1

>  <HIPPO Pose ID>  (374) 
318158

>  <inchikey>  (374) 
SOJMYQQECXDIRN-UHFFFAOYSA-N

>  <ref_pdb>  (374) 
A4333a

>  <alias>  (374) 
C45903-P336

>  <energy_score>  (374) 
-49.822493

>  <HIPPO Compound ID>  (374) 
69262

$$$$
C51859-P495
     RDKit          3D

 13 13  0  0  0  0  0  0  0  0999 V2000
    9.7916    9.2648   23.1057 C   0  0  0  0  0  0  0  0  0  0  0  0
   10.1081   10.6401   23.1377 O   0  0  0  0  0  0  0  0  0  0  0  0
    9.3552   11.4750   23.9016 C   0  0  0  0  0  0  0  0  0  0  0  0
    8.3396   11.0548   24.7556 C   0  0  0  0  0  0  0  0  0  0  0  0
    7.5933   12.0190   25.3946 C   0  0  0  0  0  0  0  0  0  0  0  0
    7.8036   13.3360   25.2402 N   0  0  0  0  0  0  0  0  0  0  0  0
    8.8011   13.7148   24.4203 C   0  0  0  0  0  0  0  0  0  0  0  0
    8.9056   15.0654   24.2790 O   0  0  0  0  0  0  0  0  0  0  0  0
    9.6590   12.8382   23.7696 C   0  0  0  0  0  0  0  0  0  0  0  0
   10.9272   13.2943   23.0694 C   0  0  2  0  0  0  0  0  0  0  0  0
   11.8970   13.9239   24.0742 C   0  0  0  0  0  0  0  0  0  0  0  0
   10.7336   14.2428   21.9190 C   0  0  0  0  0  0  0  0  0  0  0  0
    9.8758   15.1226   21.9155 O   0  0  0  0  0  0  0  0  0  0  0  0
  1  2  1  0
  2  3  1  0
  3  4  2  0
  4  5  1  0
  5  6  2  0
  6  7  1  0
  7  8  1  0
  7  9  2  0
  9 10  1  0
 10 11  1  1
 10 12  1  0
 12 13  2  0
  9  3  1  0
M  END
>  <tags>  (375) 
{'openbind_a71ev2a_c1_knitwork_pure', 'fragmenstein_placed'}

>  <distance_score>  (375) 
0.961127

>  <ref_mols>  (375) 
A4874b,A2629a

>  <smiles>  (375) 
COc1ccnc(O)c1[C@H](C)C=O

>  <HIPPO Pose ID>  (375) 
319578

>  <inchikey>  (375) 
FUASHUQWJFTJQN-UHFFFAOYSA-N

>  <ref_pdb>  (375) 
A4333a

>  <alias>  (375) 
C51859-P495

>  <energy_score>  (375) 
-24.075358

>  <HIPPO Compound ID>  (375) 
87625

$$$$
C46321-P481
     RDKit          3D

 21 23  0  0  0  0  0  0  0  0999 V2000
   21.0607   20.1252   23.3750 C   0  0  0  0  0  0  0  0  0  0  0  0
   21.5772   20.9017   22.1764 C   0  0  0  0  0  0  0  0  0  0  0  0
   23.0022   20.4852   21.7877 C   0  0  0  0  0  0  0  0  0  0  0  0
   23.5206   21.2120   20.5842 C   0  0  0  0  0  0  0  0  0  0  0  0
   22.6876   21.4900   19.5697 N   0  0  0  0  0  0  0  0  0  0  0  0
   23.4599   22.1208   18.6748 N   0  0  0  0  0  0  0  0  0  0  0  0
   24.7680   22.2381   19.0512 C   0  0  0  0  0  0  0  0  0  0  0  0
   25.8549   22.7941   18.3789 C   0  0  0  0  0  0  0  0  0  0  0  0
   27.0830   22.7799   19.0372 C   0  0  0  0  0  0  0  0  0  0  0  0
   27.2237   22.1888   20.2988 C   0  0  0  0  0  0  0  0  0  0  0  0
   28.5294   22.2673   21.0346 C   0  0  0  0  0  0  0  0  0  0  0  0
   28.4890   22.4069   22.1916 O   0  0  0  0  0  0  0  0  0  0  0  0
   29.7354   22.2251   20.0746 N   0  0  0  0  0  0  0  0  0  0  0  0
   31.1506   22.4426   20.3260 C   0  0  1  0  0  0  0  0  0  0  0  0
   32.0118   21.4436   19.5413 C   0  0  0  0  0  0  0  0  0  0  0  0
   32.6628   22.0588   18.3012 C   0  0  0  0  0  0  0  0  0  0  0  0
   31.7545   23.0847   17.6322 C   0  0  0  0  0  0  0  0  0  0  0  0
   31.3309   24.1771   18.5123 N   0  0  0  0  0  0  0  0  0  0  0  0
   31.5189   23.8906   19.9474 C   0  0  0  0  0  0  0  0  0  0  0  0
   26.1096   21.6090   20.9465 C   0  0  0  0  0  0  0  0  0  0  0  0
   24.8531   21.6447   20.3056 C   0  0  0  0  0  0  0  0  0  0  0  0
  1  2  1  0
  2  3  1  0
  3  4  1  0
  4  5  2  0
  5  6  1  0
  6  7  1  0
  7  8  2  0
  8  9  1  0
  9 10  2  0
 10 11  1  0
 11 12  2  0
 11 13  1  0
 14 13  1  6
 14 15  1  0
 15 16  1  0
 16 17  1  0
 17 18  1  0
 18 19  1  0
 10 20  1  0
 20 21  2  0
 21  4  1  0
 21  7  1  0
 19 14  1  0
M  END
>  <tags>  (376) 
{'openbind_a71ev2a_c1_knitwork_pure', 'fragmenstein_placed'}

>  <distance_score>  (376) 
0.822877

>  <ref_mols>  (376) 
A3181b,A4836a

>  <smiles>  (376) 
CCCc1n[nH]c2ccc(C(=O)N[C@H]3CCCNC3)cc12

>  <HIPPO Pose ID>  (376) 
320510

>  <inchikey>  (376) 
VAGNKVBSAUXXJB-UHFFFAOYSA-N

>  <ref_pdb>  (376) 
A4333a

>  <alias>  (376) 
C46321-P481

>  <energy_score>  (376) 
-23.452818

>  <HIPPO Compound ID>  (376) 
64592

$$$$
C46327-P481
     RDKit          3D

 18 20  0  0  0  0  0  0  0  0999 V2000
   27.2820   21.6939   20.7604 C   0  0  0  0  0  0  0  0  0  0  0  0
   27.3103   22.2729   19.4916 C   0  0  0  0  0  0  0  0  0  0  0  0
   26.1380   22.4733   18.7370 C   0  0  0  0  0  0  0  0  0  0  0  0
   26.2142   23.0966   17.3653 C   0  0  0  0  0  0  0  0  0  0  0  0
   26.3887   24.5456   17.4704 N   0  0  0  0  0  0  0  0  0  0  0  0
   26.3985   25.1673   16.1449 C   0  0  0  0  0  0  0  0  0  0  0  0
   26.6176   26.6896   16.2366 C   0  0  2  0  0  0  0  0  0  0  0  0
   25.4913   27.3986   17.0127 C   0  0  0  0  0  0  0  0  0  0  0  0
   25.3301   28.8653   16.6100 C   0  0  0  0  0  0  0  0  0  0  0  0
   26.6193   29.4349   16.0323 C   0  0  0  0  0  0  0  0  0  0  0  0
   27.0474   28.7294   14.8240 N   0  0  0  0  0  0  0  0  0  0  0  0
   26.7533   27.2934   14.8308 C   0  0  0  0  0  0  0  0  0  0  0  0
   24.9415   22.0610   19.3524 C   0  0  0  0  0  0  0  0  0  0  0  0
   23.6388   22.0897   18.9186 N   0  0  0  0  0  0  0  0  0  0  0  0
   22.7566   21.5329   19.7749 N   0  0  0  0  0  0  0  0  0  0  0  0
   23.5228   21.1702   20.8071 C   0  0  0  0  0  0  0  0  0  0  0  0
   24.8909   21.4562   20.6037 C   0  0  0  0  0  0  0  0  0  0  0  0
   26.0787   21.2648   21.3275 C   0  0  0  0  0  0  0  0  0  0  0  0
  1  2  2  0
  2  3  1  0
  3  4  1  0
  4  5  1  0
  5  6  1  0
  7  6  1  6
  7  8  1  0
  8  9  1  0
  9 10  1  0
 10 11  1  0
 11 12  1  0
  3 13  2  0
 13 14  1  0
 14 15  1  0
 15 16  2  0
 16 17  1  0
 17 18  2  0
 18  1  1  0
 12  7  1  0
 17 13  1  0
M  END
>  <tags>  (377) 
{'openbind_a71ev2a_c1_knitwork_pure', 'fragmenstein_placed'}

>  <distance_score>  (377) 
0.615176

>  <ref_mols>  (377) 
A3181b,A4836a

>  <smiles>  (377) 
c1cc(CNC[C@@H]2CCCNC2)c2[nH]ncc2c1

>  <HIPPO Pose ID>  (377) 
320513

>  <inchikey>  (377) 
BGICKWFMKMWXKW-UHFFFAOYSA-N

>  <ref_pdb>  (377) 
A4333a

>  <alias>  (377) 
C46327-P481

>  <energy_score>  (377) 
-37.515165

>  <HIPPO Compound ID>  (377) 
29898

$$$$
C46328-P481
     RDKit          3D

 19 21  0  0  0  0  0  0  0  0999 V2000
   28.1785   21.8509   22.9888 O   0  0  0  0  0  0  0  0  0  0  0  0
   28.1499   22.5521   22.0589 C   0  0  0  0  0  0  0  0  0  0  0  0
   29.0528   23.7387   21.6757 N   0  0  0  0  0  0  0  0  0  0  0  0
   30.1246   24.3739   22.4032 C   0  0  0  0  0  0  0  0  0  0  0  0
   31.4972   24.0898   21.7832 C   0  0  2  0  0  0  0  0  0  0  0  0
   31.8452   22.5916   21.8341 C   0  0  0  0  0  0  0  0  0  0  0  0
   33.3507   22.3351   21.8993 C   0  0  0  0  0  0  0  0  0  0  0  0
   34.1365   23.4638   21.2450 C   0  0  0  0  0  0  0  0  0  0  0  0
   33.9138   24.7607   21.8907 N   0  0  0  0  0  0  0  0  0  0  0  0
   32.5837   24.9148   22.4836 C   0  0  0  0  0  0  0  0  0  0  0  0
   27.0702   22.3223   21.0456 C   0  0  0  0  0  0  0  0  0  0  0  0
   27.2607   22.5553   19.6766 C   0  0  0  0  0  0  0  0  0  0  0  0
   26.1881   22.4869   18.7796 C   0  0  0  0  0  0  0  0  0  0  0  0
   24.9404   22.1382   19.3058 C   0  0  0  0  0  0  0  0  0  0  0  0
   23.7047   22.0250   18.7206 N   0  0  0  0  0  0  0  0  0  0  0  0
   22.7472   21.5529   19.5487 N   0  0  0  0  0  0  0  0  0  0  0  0
   23.3846   21.4321   20.7164 C   0  0  0  0  0  0  0  0  0  0  0  0
   24.7481   21.7875   20.6349 C   0  0  0  0  0  0  0  0  0  0  0  0
   25.8278   21.8698   21.5262 C   0  0  0  0  0  0  0  0  0  0  0  0
  1  2  2  0
  2  3  1  0
  3  4  1  0
  5  4  1  1
  5  6  1  0
  6  7  1  0
  7  8  1  0
  8  9  1  0
  9 10  1  0
  2 11  1  0
 11 12  2  0
 12 13  1  0
 13 14  2  0
 14 15  1  0
 15 16  1  0
 16 17  2  0
 17 18  1  0
 18 19  2  0
 10  5  1  0
 19 11  1  0
 18 14  1  0
M  END
>  <tags>  (378) 
{'openbind_a71ev2a_c1_knitwork_pure', 'fragmenstein_placed'}

>  <distance_score>  (378) 
0.91076

>  <ref_mols>  (378) 
A3181b,A4836a

>  <smiles>  (378) 
O=C(NC[C@@H]1CCCNC1)c1ccc2[nH]ncc2c1

>  <HIPPO Pose ID>  (378) 
320514

>  <inchikey>  (378) 
RZWXIWQSDZYYOP-UHFFFAOYSA-N

>  <ref_pdb>  (378) 
A4333a

>  <alias>  (378) 
C46328-P481

>  <energy_score>  (378) 
-16.108498

>  <HIPPO Compound ID>  (378) 
107313

$$$$
C46349-P481
     RDKit          3D

 20 22  0  0  0  0  0  0  0  0999 V2000
   31.4354   23.6059   17.0618 O   0  0  0  0  0  0  0  0  0  0  0  0
   31.8278   22.9610   17.9895 C   0  0  0  0  0  0  0  0  0  0  0  0
   31.2130   22.6687   19.2556 N   0  0  0  0  0  0  0  0  0  0  0  0
   29.8966   22.9807   19.7640 C   0  0  0  0  0  0  0  0  0  0  0  0
   28.8530   22.0710   19.1168 C   0  0  0  0  0  0  0  0  0  0  0  0
   27.4589   22.1589   19.6937 C   0  0  0  0  0  0  0  0  0  0  0  0
   27.2239   21.9244   21.0566 C   0  0  0  0  0  0  0  0  0  0  0  0
   25.9221   21.8510   21.5741 C   0  0  0  0  0  0  0  0  0  0  0  0
   24.8373   22.0011   20.6960 C   0  0  0  0  0  0  0  0  0  0  0  0
   23.4298   21.9416   20.7895 C   0  0  0  0  0  0  0  0  0  0  0  0
   22.8217   22.1171   19.6127 N   0  0  0  0  0  0  0  0  0  0  0  0
   23.8494   22.3319   18.7631 N   0  0  0  0  0  0  0  0  0  0  0  0
   25.0840   22.2641   19.3566 C   0  0  0  0  0  0  0  0  0  0  0  0
   26.3735   22.3648   18.8241 C   0  0  0  0  0  0  0  0  0  0  0  0
   33.2042   22.2690   17.9291 C   0  0  2  0  0  0  0  0  0  0  0  0
   34.2057   22.9248   18.9011 C   0  0  0  0  0  0  0  0  0  0  0  0
   35.3586   23.5980   18.1616 C   0  0  0  0  0  0  0  0  0  0  0  0
   36.0323   22.6456   17.1686 C   0  0  0  0  0  0  0  0  0  0  0  0
   35.1123   21.7469   16.4663 N   0  0  0  0  0  0  0  0  0  0  0  0
   33.7338   22.2408   16.4865 C   0  0  0  0  0  0  0  0  0  0  0  0
  1  2  2  0
  2  3  1  0
  3  4  1  0
  4  5  1  0
  5  6  1  0
  6  7  2  0
  7  8  1  0
  8  9  2  0
  9 10  1  0
 10 11  2  0
 11 12  1  0
 12 13  1  0
 13 14  2  0
 15  2  1  6
 15 16  1  0
 16 17  1  0
 17 18  1  0
 18 19  1  0
 19 20  1  0
 14  6  1  0
 20 15  1  0
 13  9  1  0
M  END
>  <tags>  (379) 
{'openbind_a71ev2a_c1_knitwork_pure', 'fragmenstein_placed'}

>  <distance_score>  (379) 
0.938384

>  <ref_mols>  (379) 
A3181b,A4836a

>  <smiles>  (379) 
O=C(NCCc1ccc2cn[nH]c2c1)[C@@H]1CCCNC1

>  <HIPPO Pose ID>  (379) 
320520

>  <inchikey>  (379) 
NHTIISPGTDJACN-UHFFFAOYSA-N

>  <ref_pdb>  (379) 
A4333a

>  <alias>  (379) 
C46349-P481

>  <energy_score>  (379) 
-19.719274

>  <HIPPO Compound ID>  (379) 
46497

$$$$
C46350-P481
     RDKit          3D

 22 24  0  0  0  0  0  0  0  0999 V2000
   23.2135   22.9282   17.6694 C   0  0  0  0  0  0  0  0  0  0  0  0
   23.6795   22.2909   18.8788 N   0  0  0  0  0  0  0  0  0  0  0  0
   22.7824   21.7692   19.7490 N   0  0  0  0  0  0  0  0  0  0  0  0
   23.5451   21.3449   20.7601 C   0  0  0  0  0  0  0  0  0  0  0  0
   24.9224   21.5609   20.5384 C   0  0  0  0  0  0  0  0  0  0  0  0
   26.1121   21.3126   21.2424 C   0  0  0  0  0  0  0  0  0  0  0  0
   27.3312   21.6672   20.6467 C   0  0  0  0  0  0  0  0  0  0  0  0
   27.3774   22.2285   19.3690 C   0  0  0  0  0  0  0  0  0  0  0  0
   28.6231   22.4517   18.7871 N   0  0  0  0  0  0  0  0  0  0  0  0
   29.0001   22.9273   17.3406 C   0  0  0  0  0  0  0  0  0  0  0  0
   28.3167   23.2744   16.4535 O   0  0  0  0  0  0  0  0  0  0  0  0
   30.5525   22.8557   17.2875 C   0  0  0  0  0  0  0  0  0  0  0  0
   30.9690   21.7628   18.0082 F   0  0  0  0  0  0  0  0  0  0  0  0
   31.1089   23.9224   17.9357 F   0  0  0  0  0  0  0  0  0  0  0  0
   31.1313   22.7537   15.8712 C   0  0  2  0  0  0  0  0  0  0  0  0
   32.6225   22.3739   15.9264 C   0  0  0  0  0  0  0  0  0  0  0  0
   33.2406   22.3706   14.5311 C   0  0  0  0  0  0  0  0  0  0  0  0
   32.9873   23.6927   13.8149 C   0  0  0  0  0  0  0  0  0  0  0  0
   31.5597   24.0036   13.7523 N   0  0  0  0  0  0  0  0  0  0  0  0
   30.9641   24.0686   15.0928 C   0  0  0  0  0  0  0  0  0  0  0  0
   26.2000   22.5154   18.6765 C   0  0  0  0  0  0  0  0  0  0  0  0
   24.9852   22.1707   19.2899 C   0  0  0  0  0  0  0  0  0  0  0  0
  1  2  1  0
  2  3  1  0
  3  4  2  0
  4  5  1  0
  5  6  2  0
  6  7  1  0
  7  8  2  0
  8  9  1  0
  9 10  1  0
 10 11  2  0
 10 12  1  0
 12 13  1  0
 12 14  1  0
 15 12  1  1
 15 16  1  0
 16 17  1  0
 17 18  1  0
 18 19  1  0
 19 20  1  0
  8 21  1  0
 21 22  2  0
 22  2  1  0
 22  5  1  0
 20 15  1  0
M  END
>  <tags>  (380) 
{'openbind_a71ev2a_c1_knitwork_pure', 'fragmenstein_placed'}

>  <distance_score>  (380) 
0.619376

>  <ref_mols>  (380) 
A3181b,A4836a

>  <smiles>  (380) 
Cn1ncc2ccc(NC(=O)C(F)(F)[C@@H]3CCCNC3)cc21

>  <HIPPO Pose ID>  (380) 
320521

>  <inchikey>  (380) 
MLATWPCEIWLAON-UHFFFAOYSA-N

>  <ref_pdb>  (380) 
A4333a

>  <alias>  (380) 
C46350-P481

>  <energy_score>  (380) 
-44.860551

>  <HIPPO Compound ID>  (380) 
45845

$$$$
C46353-P481
     RDKit          3D

 17 19  0  0  0  0  0  0  0  0999 V2000
   27.2877   21.6588   20.6621 C   0  0  0  0  0  0  0  0  0  0  0  0
   27.2395   22.3414   19.4438 C   0  0  0  0  0  0  0  0  0  0  0  0
   26.0233   22.5903   18.7840 C   0  0  0  0  0  0  0  0  0  0  0  0
   25.9692   23.3173   17.4633 C   0  0  0  0  0  0  0  0  0  0  0  0
   25.0202   24.4353   17.5355 N   0  0  0  0  0  0  0  0  0  0  0  0
   24.6937   25.0370   16.2312 C   0  0  2  0  0  0  0  0  0  0  0  0
   23.6013   24.2220   15.5150 C   0  0  0  0  0  0  0  0  0  0  0  0
   23.6048   24.4457   14.0013 C   0  0  0  0  0  0  0  0  0  0  0  0
   24.1197   25.8325   13.6332 C   0  0  0  0  0  0  0  0  0  0  0  0
   25.4904   26.0887   14.0842 N   0  0  0  0  0  0  0  0  0  0  0  0
   25.8764   25.3213   15.2767 C   0  0  0  0  0  0  0  0  0  0  0  0
   24.8790   22.0768   19.4176 C   0  0  0  0  0  0  0  0  0  0  0  0
   23.5597   22.1247   19.0442 N   0  0  0  0  0  0  0  0  0  0  0  0
   22.7270   21.4576   19.8735 N   0  0  0  0  0  0  0  0  0  0  0  0
   23.5464   21.0264   20.8385 C   0  0  0  0  0  0  0  0  0  0  0  0
   24.8987   21.3681   20.6097 C   0  0  0  0  0  0  0  0  0  0  0  0
   26.1251   21.1552   21.2581 C   0  0  0  0  0  0  0  0  0  0  0  0
  1  2  2  0
  2  3  1  0
  3  4  1  0
  4  5  1  0
  6  5  1  1
  6  7  1  0
  7  8  1  0
  8  9  1  0
  9 10  1  0
 10 11  1  0
  3 12  2  0
 12 13  1  0
 13 14  1  0
 14 15  2  0
 15 16  1  0
 16 17  2  0
 17  1  1  0
 11  6  1  0
 16 12  1  0
M  END
>  <tags>  (381) 
{'openbind_a71ev2a_c1_knitwork_pure', 'fragmenstein_placed'}

>  <distance_score>  (381) 
0.649725

>  <ref_mols>  (381) 
A3181b,A4836a

>  <smiles>  (381) 
c1cc(CN[C@@H]2CCCNC2)c2[nH]ncc2c1

>  <HIPPO Pose ID>  (381) 
320522

>  <inchikey>  (381) 
FFOQKKOHSFRDDO-UHFFFAOYSA-N

>  <ref_pdb>  (381) 
A4333a

>  <alias>  (381) 
C46353-P481

>  <energy_score>  (381) 
-38.314899

>  <HIPPO Compound ID>  (381) 
45801

$$$$
C45903-P444
     RDKit          3D

 21 23  0  0  0  0  0  0  0  0999 V2000
   23.1400   17.7819   20.4359 O   0  0  0  0  0  0  0  0  0  0  0  0
   22.8159   18.4437   21.6590 C   0  0  1  0  0  0  0  0  0  0  0  0
   23.9547   19.3962   22.0334 C   0  0  0  0  0  0  0  0  0  0  0  0
   25.3109   18.6894   22.0536 C   0  0  0  0  0  0  0  0  0  0  0  0
   26.4466   19.4819   22.5497 N   0  0  0  0  0  0  0  0  0  0  0  0
   26.7123   20.7005   21.9052 C   0  0  0  0  0  0  0  0  0  0  0  0
   25.9601   21.8122   22.1912 C   0  0  0  0  0  0  0  0  0  0  0  0
   26.4170   22.9909   21.6733 C   0  0  0  0  0  0  0  0  0  0  0  0
   27.5365   23.0951   20.9434 N   0  0  0  0  0  0  0  0  0  0  0  0
   28.2200   21.9670   20.6905 C   0  0  0  0  0  0  0  0  0  0  0  0
   29.4166   22.0621   19.9669 N   0  0  0  0  0  0  0  0  0  0  0  0
   29.5576   20.9681   19.0124 C   0  0  0  0  0  0  0  0  0  0  0  0
   30.5614   21.2913   17.8992 C   0  0  0  0  0  0  0  0  0  0  0  0
   31.7253   22.1565   18.3563 C   0  0  0  0  0  0  0  0  0  0  0  0
   31.2702   23.3967   19.1275 C   0  0  0  0  0  0  0  0  0  0  0  0
   29.7851   23.3884   19.5033 C   0  0  0  0  0  0  0  0  0  0  0  0
   27.8150   20.7623   21.1425 N   0  0  0  0  0  0  0  0  0  0  0  0
   21.4681   19.1283   21.4532 C   0  0  0  0  0  0  0  0  0  0  0  0
   21.3036   20.2623   20.4015 C   0  0  0  0  0  0  0  0  0  0  0  0
   20.2137   20.8498   21.3239 C   0  0  0  0  0  0  0  0  0  0  0  0
   20.9235   20.1411   22.4981 C   0  0  0  0  0  0  0  0  0  0  0  0
  2  1  1  6
  2  3  1  0
  3  4  1  0
  4  5  1  0
  5  6  1  0
  6  7  2  0
  7  8  1  0
  8  9  2  0
  9 10  1  0
 10 11  1  0
 11 12  1  0
 12 13  1  0
 13 14  1  0
 14 15  1  0
 15 16  1  0
 10 17  2  0
  2 18  1  0
 18 19  1  0
 19 20  1  0
 20 21  1  0
 17  6  1  0
 21 18  1  0
 16 11  1  0
M  END
>  <tags>  (382) 
{'openbind_a71ev2a_c1_knitwork_pure', 'fragmenstein_placed'}

>  <distance_score>  (382) 
0.891372

>  <ref_mols>  (382) 
A4712a,A1146a

>  <smiles>  (382) 
O[C@@H](CCNc1ccnc(N2CCCCC2)n1)C1CCC1

>  <HIPPO Pose ID>  (382) 
323249

>  <inchikey>  (382) 
WCZFMVGDBUJSBO-UHFFFAOYSA-N

>  <ref_pdb>  (382) 
A1146a

>  <alias>  (382) 
C45903-P444

>  <energy_score>  (382) 
-32.88145

>  <HIPPO Compound ID>  (382) 
70091

$$$$
C45662-P441
     RDKit          3D

 22 24  0  0  0  0  0  0  0  0999 V2000
    4.5392   14.9053    3.8520 O   0  0  0  0  0  0  0  0  0  0  0  0
    4.6264   13.7498    3.6976 C   0  0  0  0  0  0  0  0  0  0  0  0
    5.7675   12.7639    4.0868 N   0  0  0  0  0  0  0  0  0  0  0  0
    7.2319   13.0468    4.7290 S   0  0  0  0  0  0  0  0  0  0  0  0
    7.7500   11.7448    5.0777 O   0  0  0  0  0  0  0  0  0  0  0  0
    7.1139   14.0507    5.7697 O   0  0  0  0  0  0  0  0  0  0  0  0
    8.2164   13.7048    3.4025 C   0  0  2  0  0  0  0  0  0  0  0  0
    7.7129   15.0252    2.8446 C   0  0  0  0  0  0  0  0  0  0  0  0
    8.7349   15.6062    1.8662 C   0  0  0  0  0  0  0  0  0  0  0  0
    9.6617   14.5431    1.2584 C   0  0  0  0  0  0  0  0  0  0  0  0
    8.9707   13.2778    1.0474 N   0  0  0  0  0  0  0  0  0  0  0  0
    8.4387   12.6855    2.2857 C   0  0  0  0  0  0  0  0  0  0  0  0
    3.4988   13.0184    3.1192 C   0  0  0  0  0  0  0  0  0  0  0  0
    2.3924   13.5955    2.4496 C   0  0  0  0  0  0  0  0  0  0  0  0
    1.4951   12.6939    2.0493 N   0  0  0  0  0  0  0  0  0  0  0  0
    1.9995   11.5237    2.4803 N   0  0  0  0  0  0  0  0  0  0  0  0
    1.2750   10.2785    2.2733 C   0  0  0  0  0  0  0  0  0  0  0  0
    1.1449    9.9100    0.7852 C   0  0  0  0  0  0  0  0  0  0  0  0
   -0.3132    9.5119    0.5933 C   0  0  0  0  0  0  0  0  0  0  0  0
   -1.0572   10.3639    1.6068 C   0  0  0  0  0  0  0  0  0  0  0  0
   -0.1566   10.3097    2.8331 C   0  0  0  0  0  0  0  0  0  0  0  0
    3.2043   11.6657    3.1175 C   0  0  0  0  0  0  0  0  0  0  0  0
  1  2  2  0
  2  3  1  0
  3  4  1  0
  4  5  2  0
  4  6  2  0
  7  4  1  1
  7  8  1  0
  8  9  1  0
  9 10  1  0
 10 11  1  0
 11 12  1  0
  2 13  1  0
 13 14  1  0
 14 15  2  0
 15 16  1  0
 16 17  1  0
 17 18  1  0
 18 19  1  0
 19 20  1  0
 20 21  1  0
 16 22  1  0
 12  7  1  0
 22 13  2  0
 21 17  1  0
M  END
>  <tags>  (383) 
{'openbind_a71ev2a_c1_knitwork_pure', 'fragmenstein_placed'}

>  <distance_score>  (383) 
0.898711

>  <ref_mols>  (383) 
A4708a,A0717a

>  <smiles>  (383) 
O=C(NS(=O)(=O)[C@@H]1CCCNC1)c1cnn(C2CCCC2)c1

>  <HIPPO Pose ID>  (383) 
324071

>  <inchikey>  (383) 
YBCNZGDJWJHKOC-UHFFFAOYSA-N

>  <ref_pdb>  (383) 
A1146a

>  <alias>  (383) 
C45662-P441

>  <energy_score>  (383) 
-36.6942

>  <HIPPO Compound ID>  (383) 
102932

$$$$
C102905-P123
     RDKit          3D

 20 22  0  0  0  0  0  0  0  0999 V2000
   12.0443   14.3677   -1.5422 C   0  0  0  0  0  0  0  0  0  0  0  0
   10.6957   14.6093   -0.8682 C   0  0  2  0  0  0  0  0  0  0  0  0
   10.5522   16.3450   -0.3071 S   0  0  0  0  0  0  0  0  0  0  0  0
   11.6754   16.4004    1.0272 C   0  0  0  0  0  0  0  0  0  0  0  0
   11.3723   15.9513    2.2275 N   0  0  0  0  0  0  0  0  0  0  0  0
   12.3938   16.1645    3.1358 N   0  0  0  0  0  0  0  0  0  0  0  0
   13.4194   16.7730    2.5795 C   0  0  0  0  0  0  0  0  0  0  0  0
   13.2196   17.1400    0.9179 S   0  0  0  0  0  0  0  0  0  0  0  0
   10.4420   13.6104    0.2736 C   0  0  0  0  0  0  0  0  0  0  0  0
   11.2795   12.8958    0.6981 O   0  0  0  0  0  0  0  0  0  0  0  0
    8.9873   13.7963    0.7074 N   0  0  0  0  0  0  0  0  0  0  0  0
    8.0221   12.8156   -0.0817 C   0  0  0  0  0  0  0  0  0  0  0  0
    8.4694   11.3358   -0.1089 C   0  0  0  0  0  0  0  0  0  0  0  0
    8.7974   10.8408    1.2901 C   0  0  0  0  0  0  0  0  0  0  0  0
    8.2452   11.8540    2.2372 C   0  0  0  0  0  0  0  0  0  0  0  0
    7.6789   11.4744    3.4565 C   0  0  0  0  0  0  0  0  0  0  0  0
    7.1214   12.4351    4.2992 C   0  0  0  0  0  0  0  0  0  0  0  0
    7.1241   13.7774    3.9328 C   0  0  0  0  0  0  0  0  0  0  0  0
    7.6887   14.1637    2.7175 C   0  0  0  0  0  0  0  0  0  0  0  0
    8.2369   13.2104    1.8446 C   0  0  0  0  0  0  0  0  0  0  0  0
  2  1  1  1
  2  3  1  0
  3  4  1  0
  4  5  2  0
  5  6  1  0
  6  7  2  0
  7  8  1  0
  2  9  1  0
  9 10  2  0
  9 11  1  0
 11 12  1  0
 12 13  1  0
 13 14  1  0
 14 15  1  0
 15 16  2  0
 16 17  1  0
 17 18  2  0
 18 19  1  0
 19 20  2  0
  8  4  1  0
 20 11  1  0
 20 15  1  0
M  END
>  <tags>  (384) 
{'openbind_a71ev2a_c1_knitwork_pure', 'fragmenstein_placed'}

>  <distance_score>  (384) 
0.536369

>  <ref_mols>  (384) 
A1776a,A0586a

>  <smiles>  (384) 
C[C@H](Sc1nncs1)C(=O)N1CCCc2ccccc21

>  <HIPPO Pose ID>  (384) 
324217

>  <inchikey>  (384) 
CLFZGCHMMMECHQ-UHFFFAOYSA-N

>  <ref_pdb>  (384) 
A1146a

>  <alias>  (384) 
C102905-P123

>  <energy_score>  (384) 
-31.832647

>  <HIPPO Compound ID>  (384) 
48665

$$$$
C81620-P174
     RDKit          3D

 12 12  0  0  0  0  0  0  0  0999 V2000
   10.2104   16.7025   19.0542 C   0  0  0  0  0  0  0  0  0  0  0  0
   11.5429   15.9697   18.9730 C   0  0  0  0  0  0  0  0  0  0  0  0
   11.3726   14.4756   18.9706 C   0  0  0  0  0  0  0  0  0  0  0  0
   12.5155   16.5041   19.9056 N   0  0  0  0  0  0  0  0  0  0  0  0
   13.2963   17.5880   19.5736 C   0  0  0  0  0  0  0  0  0  0  0  0
   14.1373   17.8971   20.5269 N   0  0  0  0  0  0  0  0  0  0  0  0
   13.9243   16.9418   21.4803 C   0  0  0  0  0  0  0  0  0  0  0  0
   12.9036   16.0706   21.1463 C   0  0  0  0  0  0  0  0  0  0  0  0
   12.4131   14.8641   21.8746 C   0  0  0  0  0  0  0  0  0  0  0  0
   10.9566   14.9228   22.3078 C   0  0  0  0  0  0  0  0  0  0  0  0
   10.4853   13.5614   22.7354 C   0  0  0  0  0  0  0  0  0  0  0  0
    9.7576   13.3806   23.7095 O   0  0  0  0  0  0  0  0  0  0  0  0
  1  2  1  0
  2  3  1  0
  2  4  1  0
  4  5  1  0
  5  6  2  0
  6  7  1  0
  7  8  2  0
  8  9  1  0
  9 10  1  0
 10 11  1  0
 11 12  2  0
  8  4  1  0
M  END
>  <tags>  (385) 
{'openbind_a71ev2a_c1_knitwork_pure', 'fragmenstein_placed'}

>  <distance_score>  (385) 
0.964424

>  <ref_mols>  (385) 
A4237a,A3975a,A3371a

>  <smiles>  (385) 
CC(C)n1cncc1CCC=O

>  <HIPPO Pose ID>  (385) 
324436

>  <inchikey>  (385) 
DPASSUYVTHZQDV-UHFFFAOYSA-N

>  <ref_pdb>  (385) 
A1146a

>  <alias>  (385) 
C81620-P174

>  <energy_score>  (385) 
-14.595382

>  <HIPPO Compound ID>  (385) 
2016

$$$$
C5573-P103
     RDKit          3D

 15 17  0  0  0  0  0  0  0  0999 V2000
   14.2232   -4.5270   17.4548 C   0  0  0  0  0  0  0  0  0  0  0  0
   15.4477   -4.0432   17.9166 C   0  0  0  0  0  0  0  0  0  0  0  0
   16.5721   -4.8866   18.0633 C   0  0  0  0  0  0  0  0  0  0  0  0
   17.8176   -4.4141   18.6771 C   0  0  0  0  0  0  0  0  0  0  0  0
   18.3532   -5.0388   19.8132 C   0  0  0  0  0  0  0  0  0  0  0  0
   19.4670   -4.4923   20.4275 C   0  0  0  0  0  0  0  0  0  0  0  0
   20.0963   -3.3882   19.9837 N   0  0  0  0  0  0  0  0  0  0  0  0
   19.5960   -2.8220   18.8650 C   0  0  0  0  0  0  0  0  0  0  0  0
   18.4794   -3.2877   18.1903 C   0  0  0  0  0  0  0  0  0  0  0  0
   16.4248   -6.2397   17.6847 C   0  0  0  0  0  0  0  0  0  0  0  0
   17.2622   -7.3779   17.5975 C   0  0  0  0  0  0  0  0  0  0  0  0
   16.6122   -8.4755   17.2008 N   0  0  0  0  0  0  0  0  0  0  0  0
   15.3515   -8.0394   17.0341 N   0  0  0  0  0  0  0  0  0  0  0  0
   15.1820   -6.7011   17.2651 C   0  0  0  0  0  0  0  0  0  0  0  0
   14.0622   -5.8762   17.1391 C   0  0  0  0  0  0  0  0  0  0  0  0
  1  2  2  0
  2  3  1  0
  3  4  1  0
  4  5  2  0
  5  6  1  0
  6  7  2  0
  7  8  1  0
  8  9  2  0
  3 10  2  0
 10 11  1  0
 11 12  2  0
 12 13  1  0
 13 14  1  0
 14 15  2  0
 15  1  1  0
  9  4  1  0
 14 10  1  0
M  END
>  <tags>  (386) 
{'openbind_a71ev2a_c1_knitwork_pure', 'fragmenstein_placed'}

>  <distance_score>  (386) 
0.804774

>  <ref_mols>  (386) 
A0497a,A1105b

>  <smiles>  (386) 
c1cc(-c2ccncc2)c2cn[nH]c2c1

>  <HIPPO Pose ID>  (386) 
324525

>  <inchikey>  (386) 
IIGFTWKBMUCFTB-UHFFFAOYSA-N

>  <ref_pdb>  (386) 
A1146a

>  <alias>  (386) 
C5573-P103

>  <energy_score>  (386) 
-17.755161

>  <HIPPO Compound ID>  (386) 
5573

$$$$
C76028-P170
     RDKit          3D

 20 22  0  0  0  0  0  0  0  0999 V2000
   11.1558   14.9662   25.0173 O   0  0  0  0  0  0  0  0  0  0  0  0
   11.1516   14.9919   23.7832 C   0  0  0  0  0  0  0  0  0  0  0  0
   12.4961   14.9994   23.0953 C   0  0  0  0  0  0  0  0  0  0  0  0
   12.5016   15.7978   21.8150 C   0  0  0  0  0  0  0  0  0  0  0  0
   11.5180   15.1380   20.8855 C   0  0  0  0  0  0  0  0  0  0  0  0
   10.1349   15.2275   21.4992 C   0  0  0  0  0  0  0  0  0  0  0  0
   10.0265   14.9408   22.9503 N   0  0  0  0  0  0  0  0  0  0  0  0
    8.6813   14.8183   23.4730 C   0  0  0  0  0  0  0  0  0  0  0  0
    8.3996   14.4209   24.7819 C   0  0  0  0  0  0  0  0  0  0  0  0
    7.0832   14.2367   25.2184 C   0  0  0  0  0  0  0  0  0  0  0  0
    6.0147   14.4411   24.3479 C   0  0  0  0  0  0  0  0  0  0  0  0
    6.2456   14.8691   23.0480 C   0  0  0  0  0  0  0  0  0  0  0  0
    5.2794   15.0216   22.0691 N   0  0  0  0  0  0  0  0  0  0  0  0
    3.8878   14.6567   22.2430 C   0  0  0  0  0  0  0  0  0  0  0  0
    3.2252   14.2985   20.9582 C   0  0  0  0  0  0  0  0  0  0  0  0
    3.2700   13.1008   20.2814 C   0  0  0  0  0  0  0  0  0  0  0  0
    2.5373   13.2280   19.1439 O   0  0  0  0  0  0  0  0  0  0  0  0
    2.0888   14.5125   19.1907 C   0  0  0  0  0  0  0  0  0  0  0  0
    2.4846   15.2097   20.2363 N   0  0  0  0  0  0  0  0  0  0  0  0
    7.5742   15.0600   22.6433 C   0  0  0  0  0  0  0  0  0  0  0  0
  1  2  2  0
  2  3  1  0
  3  4  1  0
  4  5  1  0
  5  6  1  0
  6  7  1  0
  7  8  1  0
  8  9  2  0
  9 10  1  0
 10 11  2  0
 11 12  1  0
 12 13  1  0
 13 14  1  0
 14 15  1  0
 15 16  2  0
 16 17  1  0
 17 18  1  0
 18 19  2  0
 12 20  2  0
  7  2  1  0
 20  8  1  0
 19 15  1  0
M  END
>  <tags>  (387) 
{'openbind_a71ev2a_c1_knitwork_pure', 'fragmenstein_placed'}

>  <distance_score>  (387) 
0.734353

>  <ref_mols>  (387) 
A3623a,A3579a

>  <smiles>  (387) 
O=C1CCCCN1c1cccc(NCc2cocn2)c1

>  <HIPPO Pose ID>  (387) 
325640

>  <inchikey>  (387) 
DJBDVHCYEQULCD-UHFFFAOYSA-N

>  <ref_pdb>  (387) 
A1776a

>  <alias>  (387) 
C76028-P170

>  <energy_score>  (387) 
-28.435323

>  <HIPPO Compound ID>  (387) 
65430

$$$$
C111020-P31
     RDKit          3D

 23 25  0  0  0  0  0  0  0  0999 V2000
    8.3332   12.1614   -3.0018 C   0  0  0  0  0  0  0  0  0  0  0  0
    9.3658   12.6074   -1.9516 C   0  0  0  0  0  0  0  0  0  0  0  0
   10.7190   11.9855   -2.3061 C   0  0  0  0  0  0  0  0  0  0  0  0
    8.8560   12.2936   -0.5151 C   0  0  1  0  0  0  0  0  0  0  0  0
    8.9461   10.7961   -0.1736 C   0  0  0  0  0  0  0  0  0  0  0  0
    8.1524   10.4931    1.0911 C   0  0  0  0  0  0  0  0  0  0  0  0
    8.1318   11.6344    2.0763 C   0  0  0  0  0  0  0  0  0  0  0  0
    7.3938   11.4518    3.2627 C   0  0  0  0  0  0  0  0  0  0  0  0
    7.2579   12.4858    4.1795 C   0  0  0  0  0  0  0  0  0  0  0  0
    7.8528   13.7105    3.9112 C   0  0  0  0  0  0  0  0  0  0  0  0
    8.6030   13.8938    2.7387 C   0  0  0  0  0  0  0  0  0  0  0  0
    8.7749   12.8656    1.7973 C   0  0  0  0  0  0  0  0  0  0  0  0
    9.5405   13.0049    0.6031 N   0  0  0  0  0  0  0  0  0  0  0  0
   10.3116   14.2488    0.3837 C   0  0  0  0  0  0  0  0  0  0  0  0
   11.5339   14.3871    1.3508 C   0  0  0  0  0  0  0  0  0  0  0  0
   11.6050   15.2381    2.1530 O   0  0  0  0  0  0  0  0  0  0  0  0
   12.5455   13.2566    0.9843 N   0  0  0  0  0  0  0  0  0  0  0  0
   13.8115   12.8866    1.5987 C   0  0  0  0  0  0  0  0  0  0  0  0
   15.0822   13.4111    0.8988 C   0  0  2  0  0  0  0  0  0  0  0  0
   15.8615   12.3281    0.1542 C   0  0  0  0  0  0  0  0  0  0  0  0
   16.8855   11.8734    1.1672 C   0  0  0  0  0  0  0  0  0  0  0  0
   17.2107   13.1655    1.8754 C   0  0  0  0  0  0  0  0  0  0  0  0
   15.9930   13.9258    1.9042 O   0  0  0  0  0  0  0  0  0  0  0  0
  1  2  1  0
  2  3  1  0
  4  2  1  6
  4  5  1  0
  5  6  1  0
  6  7  1  0
  7  8  2  0
  8  9  1  0
  9 10  2  0
 10 11  1  0
 11 12  2  0
 12 13  1  0
 13 14  1  0
 14 15  1  0
 15 16  2  0
 15 17  1  0
 17 18  1  0
 19 18  1  1
 19 20  1  0
 20 21  1  0
 21 22  1  0
 22 23  1  0
 13  4  1  0
 23 19  1  0
 12  7  1  0
M  END
>  <tags>  (388) 
{'openbind_a71ev2a_c1_knitwork_pure', 'fragmenstein_placed'}

>  <distance_score>  (388) 
0.938125

>  <ref_mols>  (388) 
A0608a,A0586a

>  <smiles>  (388) 
CC(C)[C@H]1CCc2ccccc2N1CC(=O)NC[C@@H]1CCCO1

>  <HIPPO Pose ID>  (388) 
326839

>  <inchikey>  (388) 
CYCQGJXZRZHMOH-UHFFFAOYSA-N

>  <ref_pdb>  (388) 
A1776a

>  <alias>  (388) 
C111020-P31

>  <energy_score>  (388) 
-13.413456

>  <HIPPO Compound ID>  (388) 
47627

$$$$
C111024-P31
     RDKit          3D

 21 23  0  0  0  0  0  0  0  0999 V2000
    6.1954   10.0252    2.9874 C   0  0  0  0  0  0  0  0  0  0  0  0
    6.9934   11.2964    2.8549 C   0  0  0  0  0  0  0  0  0  0  0  0
    6.9310   12.2281    3.9028 C   0  0  0  0  0  0  0  0  0  0  0  0
    7.5851   13.4512    3.8023 C   0  0  0  0  0  0  0  0  0  0  0  0
    8.3244   13.7475    2.6581 C   0  0  0  0  0  0  0  0  0  0  0  0
    8.4499   12.8190    1.6108 C   0  0  0  0  0  0  0  0  0  0  0  0
    7.7856   11.5758    1.7171 C   0  0  0  0  0  0  0  0  0  0  0  0
    7.8680   10.5663    0.5958 C   0  0  0  0  0  0  0  0  0  0  0  0
    8.8915   10.9157   -0.4701 C   0  0  0  0  0  0  0  0  0  0  0  0
    8.8702   12.4125   -0.7226 C   0  0  0  0  0  0  0  0  0  0  0  0
    9.2603   13.1596    0.4836 N   0  0  0  0  0  0  0  0  0  0  0  0
   10.6911   13.0908    0.8722 C   0  0  0  0  0  0  0  0  0  0  0  0
   11.7526   13.4552   -0.2016 C   0  0  0  0  0  0  0  0  0  0  0  0
   11.5207   13.9699   -1.2260 O   0  0  0  0  0  0  0  0  0  0  0  0
   13.1195   13.0245    0.4302 N   0  0  0  0  0  0  0  0  0  0  0  0
   14.4586   13.0573   -0.1174 C   0  0  0  0  0  0  0  0  0  0  0  0
   15.4694   12.3482    0.7920 C   0  0  1  0  0  0  0  0  0  0  0  0
   16.8306   12.1561    0.1455 C   0  0  0  0  0  0  0  0  0  0  0  0
   17.7332   12.0604    1.3491 C   0  0  0  0  0  0  0  0  0  0  0  0
   17.1204   13.0894    2.2734 C   0  0  0  0  0  0  0  0  0  0  0  0
   15.7048   13.1112    2.0006 O   0  0  0  0  0  0  0  0  0  0  0  0
  1  2  1  0
  2  3  2  0
  3  4  1  0
  4  5  2  0
  5  6  1  0
  6  7  2  0
  7  8  1  0
  8  9  1  0
  9 10  1  0
 10 11  1  0
 11 12  1  0
 12 13  1  0
 13 14  2  0
 13 15  1  0
 15 16  1  0
 17 16  1  6
 17 18  1  0
 18 19  1  0
 19 20  1  0
 20 21  1  0
  7  2  1  0
 21 17  1  0
 11  6  1  0
M  END
>  <tags>  (389) 
{'openbind_a71ev2a_c1_knitwork_pure', 'fragmenstein_placed'}

>  <distance_score>  (389) 
0.956247

>  <ref_mols>  (389) 
A0608a,A0586a

>  <smiles>  (389) 
Cc1cccc2c1CCCN2CC(=O)NC[C@H]1CCCO1

>  <HIPPO Pose ID>  (389) 
326847

>  <inchikey>  (389) 
XAUYAWPMDBLCMB-UHFFFAOYSA-N

>  <ref_pdb>  (389) 
A1776a

>  <alias>  (389) 
C111024-P31

>  <energy_score>  (389) 
-16.045623

>  <HIPPO Compound ID>  (389) 
111024

$$$$
C45903-P536
     RDKit          3D

 21 23  0  0  0  0  0  0  0  0999 V2000
   23.4854   20.3374   25.0071 O   0  0  0  0  0  0  0  0  0  0  0  0
   22.9200   19.2758   24.2323 C   0  0  1  0  0  0  0  0  0  0  0  0
   23.6397   19.2023   22.8824 C   0  0  0  0  0  0  0  0  0  0  0  0
   25.1530   18.9440   22.9836 C   0  0  0  0  0  0  0  0  0  0  0  0
   25.8326   19.2819   21.7299 N   0  0  0  0  0  0  0  0  0  0  0  0
   26.4713   20.5259   21.6448 C   0  0  0  0  0  0  0  0  0  0  0  0
   25.9127   21.6045   22.2641 C   0  0  0  0  0  0  0  0  0  0  0  0
   26.6912   22.7069   22.3028 C   0  0  0  0  0  0  0  0  0  0  0  0
   27.8773   22.8296   21.7070 N   0  0  0  0  0  0  0  0  0  0  0  0
   28.3457   21.7685   21.0443 C   0  0  0  0  0  0  0  0  0  0  0  0
   29.5810   21.9363   20.4075 N   0  0  0  0  0  0  0  0  0  0  0  0
   30.3012   20.7418   20.0197 C   0  0  0  0  0  0  0  0  0  0  0  0
   31.3847   21.0861   19.0016 C   0  0  0  0  0  0  0  0  0  0  0  0
   32.3184   22.1683   19.5194 C   0  0  0  0  0  0  0  0  0  0  0  0
   31.5306   23.3957   19.9493 C   0  0  0  0  0  0  0  0  0  0  0  0
   30.3952   23.0464   20.9169 C   0  0  0  0  0  0  0  0  0  0  0  0
   27.6515   20.6095   20.9781 N   0  0  0  0  0  0  0  0  0  0  0  0
   23.0045   17.9830   25.0359 C   0  0  0  0  0  0  0  0  0  0  0  0
   22.1484   17.9580   26.3366 C   0  0  0  0  0  0  0  0  0  0  0  0
   21.8668   16.4735   26.0479 C   0  0  0  0  0  0  0  0  0  0  0  0
   22.1383   16.7824   24.5643 C   0  0  0  0  0  0  0  0  0  0  0  0
  2  1  1  1
  2  3  1  0
  3  4  1  0
  4  5  1  0
  5  6  1  0
  6  7  2  0
  7  8  1  0
  8  9  2  0
  9 10  1  0
 10 11  1  0
 11 12  1  0
 12 13  1  0
 13 14  1  0
 14 15  1  0
 15 16  1  0
 10 17  2  0
  2 18  1  0
 18 19  1  0
 19 20  1  0
 20 21  1  0
 17  6  1  0
 21 18  1  0
 16 11  1  0
M  END
>  <tags>  (390) 
{'openbind_a71ev2a_c1_knitwork_pure', 'fragmenstein_placed'}

>  <distance_score>  (390) 
0.841485

>  <ref_mols>  (390) 
A4943b,A1146a

>  <smiles>  (390) 
O[C@@H](CCNc1ccnc(N2CCCCC2)n1)C1CCC1

>  <HIPPO Pose ID>  (390) 
326901

>  <inchikey>  (390) 
DNVWCQWVHHGFQV-UHFFFAOYSA-N

>  <ref_pdb>  (390) 
A1776a

>  <alias>  (390) 
C45903-P536

>  <energy_score>  (390) 
-76.368601

>  <HIPPO Compound ID>  (390) 
55545

$$$$
C55840-P103
     RDKit          3D

 24 27  0  0  0  0  0  0  0  0999 V2000
   17.8556   -6.1292   19.1290 C   0  0  0  0  0  0  0  0  0  0  0  0
   17.6425   -5.1358   18.1817 C   0  0  0  0  0  0  0  0  0  0  0  0
   18.5715   -4.1113   18.0480 C   0  0  0  0  0  0  0  0  0  0  0  0
   19.6797   -4.1101   18.8841 C   0  0  0  0  0  0  0  0  0  0  0  0
   20.7186   -3.0965   18.7526 C   0  0  0  0  0  0  0  0  0  0  0  0
   21.0819   -2.4882   17.6370 N   0  0  0  0  0  0  0  0  0  0  0  0
   21.9676   -1.4584   17.8807 N   0  0  0  0  0  0  0  0  0  0  0  0
   22.1701   -1.2845   19.1684 C   0  0  0  0  0  0  0  0  0  0  0  0
   22.7768   -0.1889   19.7013 N   0  0  0  0  0  0  0  0  0  0  0  0
   21.8257    0.8897   20.0113 C   0  0  0  0  0  0  0  0  0  0  0  0
   21.2340    0.8151   21.4234 C   0  0  0  0  0  0  0  0  0  0  0  0
   19.7051    1.0489   21.4696 C   0  0  0  0  0  0  0  0  0  0  0  0
   18.9229   -0.2014   21.3019 C   0  0  0  0  0  0  0  0  0  0  0  0
   18.1137   -0.5026   20.3035 N   0  0  0  0  0  0  0  0  0  0  0  0
   17.6766   -1.7950   20.4846 N   0  0  0  0  0  0  0  0  0  0  0  0
   18.2156   -2.2509   21.5956 C   0  0  0  0  0  0  0  0  0  0  0  0
   18.1548   -3.5024   22.2655 C   0  0  0  0  0  0  0  0  0  0  0  0
   18.7996   -3.6695   23.4367 C   0  0  0  0  0  0  0  0  0  0  0  0
   19.5463   -2.5847   24.0536 C   0  0  0  0  0  0  0  0  0  0  0  0
   19.6059   -1.3999   23.4237 C   0  0  0  0  0  0  0  0  0  0  0  0
   18.9623   -1.2505   22.1938 N   0  0  0  0  0  0  0  0  0  0  0  0
   21.5782   -2.5592   20.1400 S   0  0  0  0  0  0  0  0  0  0  0  0
   19.8773   -5.0460   19.8532 N   0  0  0  0  0  0  0  0  0  0  0  0
   18.9706   -6.0366   19.9409 C   0  0  0  0  0  0  0  0  0  0  0  0
  1  2  2  0
  2  3  1  0
  3  4  2  0
  4  5  1  0
  5  6  2  0
  6  7  1  0
  7  8  2  0
  8  9  1  0
  9 10  1  0
 10 11  1  0
 11 12  1  0
 12 13  1  0
 13 14  2  0
 14 15  1  0
 15 16  2  0
 16 17  1  0
 17 18  2  0
 18 19  1  0
 19 20  2  0
 20 21  1  0
  8 22  1  0
  4 23  1  0
 23 24  2  0
 24  1  1  0
 22  5  1  0
 21 13  1  0
 21 16  1  0
M  END
>  <tags>  (391) 
{'openbind_a71ev2a_c1_knitwork_pure', 'fragmenstein_placed'}

>  <distance_score>  (391) 
0.889783

>  <ref_mols>  (391) 
A1293a,A1105b

>  <smiles>  (391) 
c1ccc(-c2nnc(NCCCc3nnc4ccccn34)s2)nc1

>  <HIPPO Pose ID>  (391) 
327263

>  <inchikey>  (391) 
LQIMRROOJIHJNB-UHFFFAOYSA-N

>  <ref_pdb>  (391) 
A1776a

>  <alias>  (391) 
C55840-P103

>  <energy_score>  (391) 
-110.899055

>  <HIPPO Compound ID>  (391) 
49927

$$$$
C55852-P103
     RDKit          3D

 22 24  0  0  0  0  0  0  0  0999 V2000
   21.0060   -1.7950   17.6836 O   0  0  0  0  0  0  0  0  0  0  0  0
   20.8257   -2.2426   18.7422 C   0  0  0  0  0  0  0  0  0  0  0  0
   21.1859   -1.6918   20.1315 N   0  0  0  0  0  0  0  0  0  0  0  0
   21.7577   -0.4325   20.5157 C   0  0  0  0  0  0  0  0  0  0  0  0
   20.8121    0.7464   20.2344 C   0  0  0  0  0  0  0  0  0  0  0  0
   19.5658    0.9167   21.1273 C   0  0  0  0  0  0  0  0  0  0  0  0
   18.7367   -0.3066   21.2095 C   0  0  0  0  0  0  0  0  0  0  0  0
   17.8424   -0.7159   20.3296 N   0  0  0  0  0  0  0  0  0  0  0  0
   17.4834   -2.0029   20.6579 N   0  0  0  0  0  0  0  0  0  0  0  0
   18.1259   -2.3334   21.7575 C   0  0  0  0  0  0  0  0  0  0  0  0
   18.1512   -3.5129   22.5510 C   0  0  0  0  0  0  0  0  0  0  0  0
   18.9128   -3.5582   23.6613 C   0  0  0  0  0  0  0  0  0  0  0  0
   19.7026   -2.4135   24.0860 C   0  0  0  0  0  0  0  0  0  0  0  0
   19.6677   -1.2911   23.3484 C   0  0  0  0  0  0  0  0  0  0  0  0
   18.8887   -1.2617   22.1898 N   0  0  0  0  0  0  0  0  0  0  0  0
   20.0404   -3.5136   18.9123 C   0  0  0  0  0  0  0  0  0  0  0  0
   19.0165   -3.8082   18.0157 C   0  0  0  0  0  0  0  0  0  0  0  0
   18.2116   -4.9174   18.2669 C   0  0  0  0  0  0  0  0  0  0  0  0
   18.4769   -5.6910   19.3846 C   0  0  0  0  0  0  0  0  0  0  0  0
   17.7391   -6.7742   19.6571 F   0  0  0  0  0  0  0  0  0  0  0  0
   19.5214   -5.3317   20.2219 C   0  0  0  0  0  0  0  0  0  0  0  0
   20.2995   -4.2395   20.0409 N   0  0  0  0  0  0  0  0  0  0  0  0
  1  2  2  0
  2  3  1  0
  3  4  1  0
  4  5  1  0
  5  6  1  0
  6  7  1  0
  7  8  2  0
  8  9  1  0
  9 10  2  0
 10 11  1  0
 11 12  2  0
 12 13  1  0
 13 14  2  0
 14 15  1  0
  2 16  1  0
 16 17  2  0
 17 18  1  0
 18 19  2  0
 19 20  1  0
 19 21  1  0
 21 22  2  0
 15  7  1  0
 22 16  1  0
 15 10  1  0
M  END
>  <tags>  (392) 
{'openbind_a71ev2a_c1_knitwork_pure', 'fragmenstein_placed'}

>  <distance_score>  (392) 
0.806883

>  <ref_mols>  (392) 
A1293a,A1105b

>  <smiles>  (392) 
O=C(NCCCc1nnc2ccccn12)c1ccc(F)cn1

>  <HIPPO Pose ID>  (392) 
327272

>  <inchikey>  (392) 
ATVGHXZGBSIHPD-UHFFFAOYSA-N

>  <ref_pdb>  (392) 
A1776a

>  <alias>  (392) 
C55852-P103

>  <energy_score>  (392) 
-2.032979

>  <HIPPO Compound ID>  (392) 
55679

$$$$
C55854-P103
     RDKit          3D

 22 24  0  0  0  0  0  0  0  0999 V2000
   18.1159   -7.0692   20.0011 C   0  0  0  0  0  0  0  0  0  0  0  0
   18.7011   -5.7671   19.5567 C   0  0  0  0  0  0  0  0  0  0  0  0
   18.2446   -5.1124   18.4128 C   0  0  0  0  0  0  0  0  0  0  0  0
   18.9017   -3.9679   17.9723 C   0  0  0  0  0  0  0  0  0  0  0  0
   19.9890   -3.5097   18.7000 C   0  0  0  0  0  0  0  0  0  0  0  0
   20.7146   -2.2759   18.2419 C   0  0  0  0  0  0  0  0  0  0  0  0
   20.9080   -2.0793   17.1091 O   0  0  0  0  0  0  0  0  0  0  0  0
   21.0012   -1.3948   19.4705 N   0  0  0  0  0  0  0  0  0  0  0  0
   21.4973   -0.0512   19.5588 C   0  0  0  0  0  0  0  0  0  0  0  0
   21.0685    0.6849   20.8314 C   0  0  0  0  0  0  0  0  0  0  0  0
   19.5559    0.9735   20.9763 C   0  0  0  0  0  0  0  0  0  0  0  0
   18.7343   -0.2574   21.1000 C   0  0  0  0  0  0  0  0  0  0  0  0
   17.8432   -0.6901   20.2275 N   0  0  0  0  0  0  0  0  0  0  0  0
   17.4975   -1.9750   20.5744 N   0  0  0  0  0  0  0  0  0  0  0  0
   18.1465   -2.2841   21.6760 C   0  0  0  0  0  0  0  0  0  0  0  0
   18.1889   -3.4552   22.4813 C   0  0  0  0  0  0  0  0  0  0  0  0
   18.9263   -3.4670   23.6089 C   0  0  0  0  0  0  0  0  0  0  0  0
   19.6664   -2.2920   24.0422 C   0  0  0  0  0  0  0  0  0  0  0  0
   19.6215   -1.1811   23.2872 C   0  0  0  0  0  0  0  0  0  0  0  0
   18.8826   -1.1914   22.1029 N   0  0  0  0  0  0  0  0  0  0  0  0
   20.4220   -4.0737   19.8620 N   0  0  0  0  0  0  0  0  0  0  0  0
   19.7837   -5.2065   20.2330 C   0  0  0  0  0  0  0  0  0  0  0  0
  1  2  1  0
  2  3  2  0
  3  4  1  0
  4  5  2  0
  5  6  1  0
  6  7  2  0
  6  8  1  0
  8  9  1  0
  9 10  1  0
 10 11  1  0
 11 12  1  0
 12 13  2  0
 13 14  1  0
 14 15  2  0
 15 16  1  0
 16 17  2  0
 17 18  1  0
 18 19  2  0
 19 20  1  0
  5 21  1  0
 21 22  2  0
 22  2  1  0
 20 12  1  0
 20 15  1  0
M  END
>  <tags>  (393) 
{'openbind_a71ev2a_c1_knitwork_pure', 'fragmenstein_placed'}

>  <distance_score>  (393) 
0.829214

>  <ref_mols>  (393) 
A1293a,A1105b

>  <smiles>  (393) 
Cc1ccc(C(=O)NCCCc2nnc3ccccn23)nc1

>  <HIPPO Pose ID>  (393) 
327274

>  <inchikey>  (393) 
SITKYFMZVGCCEF-UHFFFAOYSA-N

>  <ref_pdb>  (393) 
A1776a

>  <alias>  (393) 
C55854-P103

>  <energy_score>  (393) 
-3.096154

>  <HIPPO Compound ID>  (393) 
76428

$$$$
C55855-P103
     RDKit          3D

 22 24  0  0  0  0  0  0  0  0999 V2000
   20.0441   -2.4098   17.0453 O   0  0  0  0  0  0  0  0  0  0  0  0
   20.1472   -2.6056   18.1903 C   0  0  0  0  0  0  0  0  0  0  0  0
   20.8195   -1.7592   19.2942 N   0  0  0  0  0  0  0  0  0  0  0  0
   21.4207   -0.4521   19.2346 C   0  0  0  0  0  0  0  0  0  0  0  0
   21.1100    0.4386   20.4474 C   0  0  0  0  0  0  0  0  0  0  0  0
   19.6311    0.8358   20.6699 C   0  0  0  0  0  0  0  0  0  0  0  0
   18.7591   -0.3284   20.9619 C   0  0  0  0  0  0  0  0  0  0  0  0
   17.7914   -0.7858   20.1912 N   0  0  0  0  0  0  0  0  0  0  0  0
   17.4418   -2.0339   20.6477 N   0  0  0  0  0  0  0  0  0  0  0  0
   18.1561   -2.2863   21.7220 C   0  0  0  0  0  0  0  0  0  0  0  0
   18.2270   -3.4028   22.5989 C   0  0  0  0  0  0  0  0  0  0  0  0
   19.0200   -3.3505   23.6867 C   0  0  0  0  0  0  0  0  0  0  0  0
   19.7970   -2.1611   23.9999 C   0  0  0  0  0  0  0  0  0  0  0  0
   19.7359   -1.1068   23.1684 C   0  0  0  0  0  0  0  0  0  0  0  0
   18.9371   -1.1851   22.0265 N   0  0  0  0  0  0  0  0  0  0  0  0
   19.5262   -3.8257   18.7923 C   0  0  0  0  0  0  0  0  0  0  0  0
   20.1800   -4.3165   19.8942 N   0  0  0  0  0  0  0  0  0  0  0  0
   19.6682   -5.4420   20.4325 C   0  0  0  0  0  0  0  0  0  0  0  0
   18.5297   -6.0789   19.9650 C   0  0  0  0  0  0  0  0  0  0  0  0
   17.8645   -5.5298   18.8750 C   0  0  0  0  0  0  0  0  0  0  0  0
   18.3601   -4.3826   18.2732 C   0  0  0  0  0  0  0  0  0  0  0  0
   17.6056   -3.8883   17.2563 O   0  0  0  0  0  0  0  0  0  0  0  0
  1  2  2  0
  2  3  1  0
  3  4  1  0
  4  5  1  0
  5  6  1  0
  6  7  1  0
  7  8  2  0
  8  9  1  0
  9 10  2  0
 10 11  1  0
 11 12  2  0
 12 13  1  0
 13 14  2  0
 14 15  1  0
  2 16  1  0
 16 17  2  0
 17 18  1  0
 18 19  2  0
 19 20  1  0
 20 21  2  0
 21 22  1  0
 15  7  1  0
 21 16  1  0
 15 10  1  0
M  END
>  <tags>  (394) 
{'openbind_a71ev2a_c1_knitwork_pure', 'fragmenstein_placed'}

>  <distance_score>  (394) 
0.856803

>  <ref_mols>  (394) 
A1293a,A1105b

>  <smiles>  (394) 
O=C(NCCCc1nnc2ccccn12)c1ncccc1O

>  <HIPPO Pose ID>  (394) 
327275

>  <inchikey>  (394) 
NGVCFPVLGXTFRC-UHFFFAOYSA-N

>  <ref_pdb>  (394) 
A1776a

>  <alias>  (394) 
C55855-P103

>  <energy_score>  (394) 
-35.758566

>  <HIPPO Compound ID>  (394) 
45694

$$$$
C55859-P103
     RDKit          3D

 23 25  0  0  0  0  0  0  0  0999 V2000
   21.6263    0.8445   19.5421 O   0  0  0  0  0  0  0  0  0  0  0  0
   21.6156   -0.0400   20.2544 C   0  0  0  0  0  0  0  0  0  0  0  0
   21.6605   -0.0786   21.7983 N   0  0  0  0  0  0  0  0  0  0  0  0
   21.6323    0.9893   22.7548 C   0  0  0  0  0  0  0  0  0  0  0  0
   20.2182    1.4694   23.1215 C   0  0  0  0  0  0  0  0  0  0  0  0
   19.1035    1.2866   22.0859 C   0  0  0  0  0  0  0  0  0  0  0  0
   18.6211   -0.0874   21.7397 C   0  0  0  0  0  0  0  0  0  0  0  0
   17.8725   -0.3260   20.6715 N   0  0  0  0  0  0  0  0  0  0  0  0
   17.5814   -1.6607   20.6218 N   0  0  0  0  0  0  0  0  0  0  0  0
   18.1428   -2.2282   21.6639 C   0  0  0  0  0  0  0  0  0  0  0  0
   18.1107   -3.5619   22.1509 C   0  0  0  0  0  0  0  0  0  0  0  0
   18.7606   -3.8886   23.2816 C   0  0  0  0  0  0  0  0  0  0  0  0
   19.4801   -2.8900   24.0424 C   0  0  0  0  0  0  0  0  0  0  0  0
   19.4749   -1.6187   23.6117 C   0  0  0  0  0  0  0  0  0  0  0  0
   18.8140   -1.2774   22.4241 N   0  0  0  0  0  0  0  0  0  0  0  0
   21.4489   -1.5510   19.9687 N   0  0  0  0  0  0  0  0  0  0  0  0
   21.1672   -2.2417   18.7365 C   0  0  0  0  0  0  0  0  0  0  0  0
   20.1658   -3.3604   18.9337 C   0  0  0  0  0  0  0  0  0  0  0  0
   19.0062   -3.4227   18.1624 C   0  0  0  0  0  0  0  0  0  0  0  0
   18.1496   -4.5120   18.3072 C   0  0  0  0  0  0  0  0  0  0  0  0
   18.4787   -5.5215   19.1996 C   0  0  0  0  0  0  0  0  0  0  0  0
   19.6436   -5.3824   19.9360 C   0  0  0  0  0  0  0  0  0  0  0  0
   20.4816   -4.3244   19.8452 N   0  0  0  0  0  0  0  0  0  0  0  0
  1  2  2  0
  2  3  1  0
  3  4  1  0
  4  5  1  0
  5  6  1  0
  6  7  1  0
  7  8  2  0
  8  9  1  0
  9 10  2  0
 10 11  1  0
 11 12  2  0
 12 13  1  0
 13 14  2  0
 14 15  1  0
  2 16  1  0
 16 17  1  0
 17 18  1  0
 18 19  2  0
 19 20  1  0
 20 21  2  0
 21 22  1  0
 22 23  2  0
 15  7  1  0
 23 18  1  0
 15 10  1  0
M  END
>  <tags>  (395) 
{'openbind_a71ev2a_c1_knitwork_pure', 'fragmenstein_placed'}

>  <distance_score>  (395) 
0.844522

>  <ref_mols>  (395) 
A1293a,A1105b

>  <smiles>  (395) 
O=C(NCCCc1nnc2ccccn12)NCc1ccccn1

>  <HIPPO Pose ID>  (395) 
327278

>  <inchikey>  (395) 
VXAIHVZBABPCQF-UHFFFAOYSA-N

>  <ref_pdb>  (395) 
A1776a

>  <alias>  (395) 
C55859-P103

>  <energy_score>  (395) 
-6.476876

>  <HIPPO Compound ID>  (395) 
53636

$$$$
C55877-P103
     RDKit          3D

 22 24  0  0  0  0  0  0  0  0999 V2000
   19.0157   -7.0052   21.1857 C   0  0  0  0  0  0  0  0  0  0  0  0
   19.0730   -5.8997   20.1756 C   0  0  0  0  0  0  0  0  0  0  0  0
   18.2834   -5.9613   19.0341 C   0  0  0  0  0  0  0  0  0  0  0  0
   18.3916   -4.9436   18.0955 C   0  0  0  0  0  0  0  0  0  0  0  0
   19.2772   -3.8961   18.3217 C   0  0  0  0  0  0  0  0  0  0  0  0
   19.9979   -3.8936   19.5048 C   0  0  0  0  0  0  0  0  0  0  0  0
   20.7003   -2.7814   19.9105 N   0  0  0  0  0  0  0  0  0  0  0  0
   21.2008   -1.5595   19.1039 C   0  0  0  0  0  0  0  0  0  0  0  0
   21.1630   -1.3429   17.9580 O   0  0  0  0  0  0  0  0  0  0  0  0
   21.7112   -0.5247   20.1143 C   0  0  0  0  0  0  0  0  0  0  0  0
   20.8645    0.7627   20.0684 C   0  0  0  0  0  0  0  0  0  0  0  0
   19.6688    0.9155   21.0324 C   0  0  0  0  0  0  0  0  0  0  0  0
   18.8194   -0.2881   21.1335 C   0  0  0  0  0  0  0  0  0  0  0  0
   17.8902   -0.6690   20.2797 N   0  0  0  0  0  0  0  0  0  0  0  0
   17.4698   -1.9257   20.6451 N   0  0  0  0  0  0  0  0  0  0  0  0
   18.1250   -2.2720   21.7325 C   0  0  0  0  0  0  0  0  0  0  0  0
   18.1347   -3.4479   22.5311 C   0  0  0  0  0  0  0  0  0  0  0  0
   18.9155   -3.5090   23.6273 C   0  0  0  0  0  0  0  0  0  0  0  0
   19.7428   -2.3840   24.0318 C   0  0  0  0  0  0  0  0  0  0  0  0
   19.7406   -1.2726   23.2767 C   0  0  0  0  0  0  0  0  0  0  0  0
   18.9455   -1.2307   22.1291 N   0  0  0  0  0  0  0  0  0  0  0  0
   19.9144   -4.8721   20.4302 N   0  0  0  0  0  0  0  0  0  0  0  0
  1  2  1  0
  2  3  2  0
  3  4  1  0
  4  5  2  0
  5  6  1  0
  6  7  1  0
  7  8  1  0
  8  9  2  0
  8 10  1  0
 10 11  1  0
 11 12  1  0
 12 13  1  0
 13 14  2  0
 14 15  1  0
 15 16  2  0
 16 17  1  0
 17 18  2  0
 18 19  1  0
 19 20  2  0
 20 21  1  0
  6 22  2  0
 22  2  1  0
 21 13  1  0
 21 16  1  0
M  END
>  <tags>  (396) 
{'openbind_a71ev2a_c1_knitwork_pure', 'fragmenstein_placed'}

>  <distance_score>  (396) 
0.987658

>  <ref_mols>  (396) 
A1293a,A1105b

>  <smiles>  (396) 
Cc1cccc(NC(=O)CCCc2nnc3ccccn23)n1

>  <HIPPO Pose ID>  (396) 
327307

>  <inchikey>  (396) 
IOEZZLDHRHKNLW-UHFFFAOYSA-N

>  <ref_pdb>  (396) 
A1776a

>  <alias>  (396) 
C55877-P103

>  <energy_score>  (396) 
-3.098581

>  <HIPPO Compound ID>  (396) 
45663

$$$$
