XX01ZVNS2B-x0709_B_301_1_XX01ZVNS2B-x4590+B+203+1__LIG
     RDKit          3D

 14 15  0  0  0  0  0  0  0  0999 V2000
   -5.0290    7.7250  -13.8340 O   0  0  0  0  0  0  0  0  0  0  0  0
   -4.7430    7.4130  -14.9760 C   0  0  0  0  0  0  0  0  0  0  0  0
   -4.9210    8.2170  -16.0060 O   0  0  0  0  0  0  0  0  0  0  0  0
   -4.1480    6.0630  -15.3090 C   0  0  0  0  0  0  0  0  0  0  0  0
   -4.6900    5.4970  -16.5270 N   0  0  0  0  0  0  0  0  0  0  0  0
   -3.8860    5.2530  -17.6110 N   0  0  0  0  0  0  0  0  0  0  0  0
   -4.6860    4.8620  -18.5800 C   0  0  0  0  0  0  0  0  0  0  0  0
   -6.0340    4.8300  -18.1510 C   0  0  0  0  0  0  0  0  0  0  0  0
   -5.9870    5.2360  -16.8170 C   0  0  0  0  0  0  0  0  0  0  0  0
   -7.0370    5.3160  -15.9980 N   0  0  0  0  0  0  0  0  0  0  0  0
   -8.2150    4.9620  -16.5530 C   0  0  0  0  0  0  0  0  0  0  0  0
   -7.2690    4.4830  -18.6790 C   0  0  0  0  0  0  0  0  0  0  0  0
   -8.3980    4.5420  -17.8760 C   0  0  0  0  0  0  0  0  0  0  0  0
   -9.7560    4.1590  -18.4060 C   0  0  0  0  0  0  0  0  0  0  0  0
 14 13  1  0
 13 11  2  0
 11 10  1  0
 10  9  2  0
  9  5  1  0
  5  4  1  0
  4  2  1  0
  2  1  2  0
  3  2  1  0
  6  5  1  0
  7  6  2  0
  8  7  1  0
  9  8  1  0
 12  8  2  0
 13 12  1  0
M  END
$$$$
