A71EV2A-x3509_C_201_1_A71EV2A-x0911+A+147+1__LIG
     RDKit          3D

 20 21  0  0  0  0  0  0  0  0999 V2000
   10.5900   16.9290   19.1450 O   0  0  0  0  0  0  0  0  0  0  0  0
   10.9860   15.7870   19.4200 C   0  0  0  0  0  0  0  0  0  0  0  0
   11.0630   14.8090   18.5210 N   0  0  0  0  0  0  0  0  0  0  0  0
   11.3440   15.4070   20.8470 C   0  0  1  0  0  0  0  0  0  0  0  0
   12.2470   16.4770   21.4920 C   0  0  0  0  0  0  0  0  0  0  0  0
   12.5080   16.1880   22.9730 C   0  0  0  0  0  0  0  0  0  0  0  0
   11.1940   15.9930   23.7210 C   0  0  0  0  0  0  0  0  0  0  0  0
   10.0540   15.2400   21.6670 C   0  0  0  0  0  0  0  0  0  0  0  0
   10.3760   14.9590   23.0700 N   0  0  0  0  0  0  0  0  0  0  0  0
   10.1330   13.7930   23.7400 C   0  0  0  0  0  0  0  0  0  0  0  0
   10.2210   13.7280   24.9640 O   0  0  0  0  0  0  0  0  0  0  0  0
    9.7310   12.7310   22.9810 N   0  0  0  0  0  0  0  0  0  0  0  0
    9.0210   11.6130   23.4950 C   0  0  0  0  0  0  0  0  0  0  0  0
    9.3060   10.3270   23.0490 C   0  0  0  0  0  0  0  0  0  0  0  0
    8.5790    9.2520   23.5290 C   0  0  0  0  0  0  0  0  0  0  0  0
    7.5850    9.4440   24.4720 C   0  0  0  0  0  0  0  0  0  0  0  0
    8.0300   11.8120   24.4530 C   0  0  0  0  0  0  0  0  0  0  0  0
    7.3200   10.7220   24.9500 C   0  0  0  0  0  0  0  0  0  0  0  0
    6.3330   10.9200   25.9810 C   0  0  0  0  0  0  0  0  0  0  0  0
    5.5410   11.0410   26.7900 N   0  0  0  0  0  0  0  0  0  0  0  0
 20 19  3  0
 19 18  1  0
 18 16  2  0
 16 15  1  0
 15 14  2  0
 14 13  1  0
 13 12  1  0
 12 10  1  0
 11 10  2  0
 10  9  1  0
  9  7  1  0
  7  6  1  0
  6  5  1  0
  5  4  1  0
  4  2  1  6
  3  2  1  0
  2  1  2  0
  8  4  1  0
  9  8  1  0
 17 13  2  0
 18 17  1  0
M  END
$$$$
