A71EV2A-x4344_A_201_1_A71EV2A-x0911+A+147+1__LIG
     RDKit          3D

 21 23  0  0  0  0  0  0  0  0999 V2000
    9.9410   13.6000   25.0770 O   0  0  0  0  0  0  0  0  0  0  0  0
    9.4670   13.9340   23.9990 C   0  0  0  0  0  0  0  0  0  0  0  0
   10.1270   14.7460   23.1460 N   0  0  0  0  0  0  0  0  0  0  0  0
   11.2200   15.5650   23.6920 C   0  0  0  0  0  0  0  0  0  0  0  0
   12.4350   15.4520   22.8260 C   0  0  0  0  0  0  0  0  0  0  0  0
   12.1010   15.9120   21.4170 C   0  0  0  0  0  0  0  0  0  0  0  0
    9.7550   15.0030   21.7480 C   0  0  0  0  0  0  0  0  0  0  0  0
   10.9780   15.0580   20.8190 C   0  0  1  0  0  0  0  0  0  0  0  0
   10.6590   15.5460   19.4160 C   0  0  0  0  0  0  0  0  0  0  0  0
   10.2520   16.6950   19.2180 O   0  0  0  0  0  0  0  0  0  0  0  0
   10.9520   14.7120   18.4360 N   0  0  0  0  0  0  0  0  0  0  0  0
    8.0830   13.4590   23.6080 C   0  0  0  0  0  0  0  0  0  0  0  0
    7.7430   12.2130   24.3930 C   0  0  0  0  0  0  0  0  0  0  0  0
    8.3790   11.0090   24.0750 C   0  0  0  0  0  0  0  0  0  0  0  0
    9.6210   10.7980   23.2510 C   0  0  0  0  0  0  0  0  0  0  0  0
    9.8970    9.2980   23.3740 C   0  0  0  0  0  0  0  0  0  0  0  0
    8.6600    8.6640   23.9870 C   0  0  0  0  0  0  0  0  0  0  0  0
    7.9470    9.8230   24.6310 C   0  0  0  0  0  0  0  0  0  0  0  0
    6.9340    9.8260   25.5840 C   0  0  0  0  0  0  0  0  0  0  0  0
    6.3570   11.0260   25.9780 C   0  0  0  0  0  0  0  0  0  0  0  0
    6.7530   12.2140   25.3780 C   0  0  0  0  0  0  0  0  0  0  0  0
 11  9  1  0
 10  9  2  0
  8  9  1  6
  8  6  1  0
  6  5  1  0
  5  4  1  0
  4  3  1  0
  3  2  1  0
  2  1  2  0
 12  2  1  0
 13 12  1  0
 13 21  2  0
 21 20  1  0
 20 19  2  0
 19 18  1  0
 18 14  2  0
 14 13  1  0
 15 14  1  0
 16 15  1  0
 17 16  1  0
 18 17  1  0
  7  3  1  0
  8  7  1  0
M  END
$$$$
