XX01ZVNS2B-x4590_B_203_1_XX01ZVNS2B-x4590+B+203+1__LIG
     RDKit          3D

 30 34  0  0  0  0  0  0  0  0999 V2000
  -10.6370    4.0920  -18.1370 Cl  0  0  0  0  0  0  0  0  0  0  0  0
   -9.0990    4.4150  -17.3710 C   0  0  0  0  0  0  0  0  0  0  0  0
   -8.0010    4.6570  -18.1790 C   0  0  0  0  0  0  0  0  0  0  0  0
   -6.8010    4.9510  -17.5520 C   0  0  0  0  0  0  0  0  0  0  0  0
   -6.6700    5.0300  -16.1570 C   0  0  0  0  0  0  0  0  0  0  0  0
   -5.2950    5.3100  -15.9440 C   0  0  0  0  0  0  0  0  0  0  0  0
   -4.6390    5.3980  -17.0840 N   0  0  0  0  0  0  0  0  0  0  0  0
   -5.5590    5.1780  -18.0720 N   0  0  0  0  0  0  0  0  0  0  0  0
   -5.1550    5.2100  -19.4820 C   0  0  0  0  0  0  0  0  0  0  0  0
   -5.0130    6.6110  -20.1130 C   0  0  0  0  0  0  0  0  0  0  0  0
   -3.6570    5.0170  -19.8050 C   0  0  0  0  0  0  0  0  0  0  0  0
   -3.7710    6.1380  -20.7670 N   0  0  0  0  0  0  0  0  0  0  0  0
   -9.0240    4.4720  -15.9830 C   0  0  0  0  0  0  0  0  0  0  0  0
   -7.8110    4.8030  -15.3590 C   0  0  0  0  0  0  0  0  0  0  0  0
   -7.7090    5.0200  -13.8740 C   0  0  0  0  0  0  0  0  0  0  0  0
   -6.8390    5.7540  -13.4090 O   0  0  0  0  0  0  0  0  0  0  0  0
   -8.6020    4.3660  -13.0890 N   0  0  0  0  0  0  0  0  0  0  0  0
   -8.6370    4.4130  -11.6680 C   0  0  0  0  0  0  0  0  0  0  0  0
   -8.8060    3.2410  -10.9320 C   0  0  0  0  0  0  0  0  0  0  0  0
   -8.7960    3.2780   -9.5410 C   0  0  0  0  0  0  0  0  0  0  0  0
   -8.9340    2.1620   -8.5480 C   0  0  0  0  0  0  0  0  0  0  0  0
   -8.4910    2.7900   -7.2840 N   0  0  0  0  0  0  0  0  0  0  0  0
   -9.1210    2.2010   -6.0900 C   0  0  0  0  0  0  0  0  0  0  0  0
  -10.6820    2.5460   -6.0510 C   0  0  0  0  0  0  0  0  0  0  0  0
  -11.4040    1.3960   -6.1350 F   0  0  0  0  0  0  0  0  0  0  0  0
  -10.9680    3.0680   -4.8280 F   0  0  0  0  0  0  0  0  0  0  0  0
   -8.6530    4.2610   -7.3940 C   0  0  0  0  0  0  0  0  0  0  0  0
   -8.6300    4.4860   -8.8790 C   0  0  0  0  0  0  0  0  0  0  0  0
   -8.4670    5.6590   -9.6110 C   0  0  0  0  0  0  0  0  0  0  0  0
   -8.4680    5.6240  -10.9970 C   0  0  0  0  0  0  0  0  0  0  0  0
 12 10  1  0
 10  9  1  0
  9  8  1  0
  8  7  1  0
  7  6  2  0
  6  5  1  0
  5 14  2  0
 15 14  1  0
 16 15  2  0
 17 15  1  0
 18 17  1  0
 18 30  2  0
 30 29  1  0
 29 28  2  0
 28 20  1  0
 20 19  2  0
 19 18  1  0
 21 20  1  0
 22 21  1  0
 23 22  1  0
 24 23  1  0
 26 24  1  0
 25 24  1  0
 27 22  1  0
 28 27  1  0
 14 13  1  0
 13  2  2  0
  2  1  1  0
  3  2  1  0
  4  3  2  0
  5  4  1  0
  8  4  1  0
 11  9  1  0
 12 11  1  0
M  END
$$$$
