XX01ZVNS2B-x0386_B_301_1_XX01ZVNS2B-x4590+B+203+1__LIG
     RDKit          3D

  7  7  0  0  0  0  0  0  0  0999 V2000
   -6.2460    5.2960  -19.9400 N   0  0  0  0  0  0  0  0  0  0  0  0
   -6.2550    5.2360  -18.4840 C   0  0  0  0  0  0  0  0  0  0  0  0
   -7.5290    4.7120  -17.9060 C   0  0  0  0  0  0  0  0  0  0  0  0
   -8.6180    4.3650  -18.6920 N   0  0  0  0  0  0  0  0  0  0  0  0
   -9.5080    4.0000  -17.8460 C   0  0  0  0  0  0  0  0  0  0  0  0
   -9.1280    4.0450  -16.5540 O   0  0  0  0  0  0  0  0  0  0  0  0
   -7.8470    4.5080  -16.6220 C   0  0  0  0  0  0  0  0  0  0  0  0
  2  1  1  0
  3  2  1  0
  3  7  2  0
  7  6  1  0
  6  5  1  0
  5  4  2  0
  4  3  1  0
M  END
$$$$
