A71EV2A-x4855_A_201_1_A71EV2A-x0911+A+147+1__LIG
     RDKit          3D

 19 20  0  0  0  0  0  0  0  0999 V2000
   10.3080   16.5280   19.2930 O   0  0  0  0  0  0  0  0  0  0  0  0
   10.8500   15.4340   19.4780 C   0  0  0  0  0  0  0  0  0  0  0  0
   11.1980   14.6230   18.4850 N   0  0  0  0  0  0  0  0  0  0  0  0
   11.0890   14.9080   20.8830 C   0  0  1  0  0  0  0  0  0  0  0  0
   11.8620   15.8700   21.8120 C   0  0  0  0  0  0  0  0  0  0  0  0
   11.5900   15.2870   23.2000 C   0  0  0  0  0  0  0  0  0  0  0  0
    9.7810   14.7440   21.6660 C   0  0  0  0  0  0  0  0  0  0  0  0
   10.2510   14.6970   23.0540 N   0  0  0  0  0  0  0  0  0  0  0  0
    9.6080   14.0670   24.0690 C   0  0  0  0  0  0  0  0  0  0  0  0
   10.0940   14.0180   25.1960 O   0  0  0  0  0  0  0  0  0  0  0  0
    8.3630   13.5830   23.7890 N   0  0  0  0  0  0  0  0  0  0  0  0
    7.6650   12.6910   24.6540 C   0  0  0  0  0  0  0  0  0  0  0  0
    7.9630   11.3260   24.5180 C   0  0  0  0  0  0  0  0  0  0  0  0
    9.2130   10.9000   23.3350 S   0  0  0  0  0  0  0  0  0  0  0  0
    9.1980    9.1010   23.2980 C   0  0  0  0  0  0  0  0  0  0  0  0
    6.7030   13.0960   25.5840 C   0  0  0  0  0  0  0  0  0  0  0  0
    6.0220   12.1480   26.3410 C   0  0  0  0  0  0  0  0  0  0  0  0
    6.2980   10.8060   26.1870 C   0  0  0  0  0  0  0  0  0  0  0  0
    7.2690   10.3880   25.2840 C   0  0  0  0  0  0  0  0  0  0  0  0
 15 14  1  0
 14 13  1  0
 13 19  2  0
 19 18  1  0
 18 17  2  0
 17 16  1  0
 16 12  2  0
 13 12  1  0
 12 11  1  0
 11  9  1  0
 10  9  2  0
  9  8  1  0
  8  6  1  0
  6  5  1  0
  5  4  1  0
  4  2  1  6
  3  2  1  0
  2  1  2  0
  7  4  1  0
  8  7  1  0
M  END
$$$$
