A71EV2A-x5150_A_201_3_A71EV2A-x0911+A+147+1__LIG
     RDKit          3D

 19 20  0  0  0  0  0  0  0  0999 V2000
   10.2460   16.4600   19.3450 O   0  0  0  0  0  0  0  0  0  0  0  0
   10.7580   15.3510   19.5350 C   0  0  0  0  0  0  0  0  0  0  0  0
   11.2840   14.6240   18.5620 N   0  0  0  0  0  0  0  0  0  0  0  0
   10.7720   14.7190   20.9170 C   0  0  1  0  0  0  0  0  0  0  0  0
   11.8210   15.3720   21.8330 C   0  0  0  0  0  0  0  0  0  0  0  0
   11.8380   14.7200   23.2250 C   0  0  0  0  0  0  0  0  0  0  0  0
   10.4390   14.6800   23.8290 C   0  0  0  0  0  0  0  0  0  0  0  0
    9.4020   14.8330   21.5950 C   0  0  0  0  0  0  0  0  0  0  0  0
    9.4410   14.1230   22.8900 N   0  0  0  0  0  0  0  0  0  0  0  0
    7.9760   13.8510   23.5190 S   0  0  0  0  0  0  0  0  0  0  0  0
    7.5680   15.0720   24.1390 O   0  0  0  0  0  0  0  0  0  0  0  0
    7.1370   13.2520   22.5320 O   0  0  0  0  0  0  0  0  0  0  0  0
    8.2090   12.7800   24.7360 N   0  0  0  0  0  0  0  0  0  0  0  0
    8.4670   11.4110   24.4690 C   0  0  0  0  0  0  0  0  0  0  0  0
    9.4100   10.8860   23.6130 C   0  0  0  0  0  0  0  0  0  0  0  0
    7.7940   10.3050   24.9880 C   0  0  0  0  0  0  0  0  0  0  0  0
    8.2600    9.1730   24.4870 N   0  0  0  0  0  0  0  0  0  0  0  0
    9.2560    9.5540   23.6500 N   0  0  0  0  0  0  0  0  0  0  0  0
   10.0290    8.5500   22.9330 C   0  0  0  0  0  0  0  0  0  0  0  0
 19 18  1  0
 18 15  1  0
 15 14  2  0
 14 13  1  0
 13 10  1  0
 11 10  2  0
 12 10  2  0
 10  9  1  0
  9  7  1  0
  7  6  1  0
  6  5  1  0
  5  4  1  0
  4  2  1  6
  3  2  1  0
  2  1  2  0
  8  4  1  0
  9  8  1  0
 16 14  1  0
 17 16  2  0
 18 17  1  0
M  END
$$$$
