A71EV2A-x4806_A_201_1_A71EV2A-x0911+A+147+1__LIG
     RDKit          3D

 20 22  0  0  0  0  0  0  0  0999 V2000
    7.1130   13.6550   22.2680 O   0  0  0  0  0  0  0  0  0  0  0  0
    7.9520   13.9720   23.0950 C   0  0  0  0  0  0  0  0  0  0  0  0
    8.9080   14.8880   22.8180 N   0  0  0  0  0  0  0  0  0  0  0  0
    9.8900   15.4140   23.7840 C   0  0  0  0  0  0  0  0  0  0  0  0
   11.3150   15.2020   23.2890 C   0  0  0  0  0  0  0  0  0  0  0  0
   11.4800   15.7340   21.8610 C   0  0  0  0  0  0  0  0  0  0  0  0
    9.0470   15.4270   21.4620 C   0  0  0  0  0  0  0  0  0  0  0  0
   10.4390   15.1060   20.9160 C   0  0  1  0  0  0  0  0  0  0  0  0
   10.5660   15.6360   19.4980 C   0  0  0  0  0  0  0  0  0  0  0  0
   10.3000   16.8070   19.2330 O   0  0  0  0  0  0  0  0  0  0  0  0
   10.9290   14.7570   18.5790 N   0  0  0  0  0  0  0  0  0  0  0  0
    7.9610   13.2990   24.4650 C   0  0  2  0  0  0  0  0  0  0  0  0
    8.1720   11.8210   24.2040 C   0  0  0  0  0  0  0  0  0  0  0  0
    7.3360   10.9670   24.9260 C   0  0  0  0  0  0  0  0  0  0  0  0
    6.1090   11.8010   25.8700 S   0  0  0  0  0  0  0  0  0  0  0  0
    6.5910   13.3920   25.1600 C   0  0  0  0  0  0  0  0  0  0  0  0
    9.1500   11.2650   23.3810 C   0  0  0  0  0  0  0  0  0  0  0  0
    9.2770    9.8900   23.2720 C   0  0  0  0  0  0  0  0  0  0  0  0
    8.4210    9.0550   23.9690 C   0  0  0  0  0  0  0  0  0  0  0  0
    7.4480    9.5850   24.8040 C   0  0  0  0  0  0  0  0  0  0  0  0
 11  9  1  0
 10  9  2  0
  8  9  1  6
  8  6  1  0
  6  5  1  0
  5  4  1  0
  4  3  1  0
  3  2  1  0
  2  1  2  0
 12  2  1  6
 12 16  1  0
 16 15  1  0
 15 14  1  0
 14 20  2  0
 20 19  1  0
 19 18  2  0
 18 17  1  0
 17 13  2  0
 14 13  1  0
 13 12  1  0
  7  3  1  0
  8  7  1  0
M  END
$$$$
