ver_1.2
     RDKit          3D

 26 27  0  0  0  0  0  0  0  0999 V2000
    6.0153   -3.1956   -1.6325 C   0  0  0  0  0  0  0  0  0  0  0  0
    4.5798   -2.4635   -0.9443 S   0  0  0  0  0  0  0  0  0  0  0  0
    4.8196   -2.1622    0.5295 O   0  0  0  0  0  0  0  0  0  0  0  0
    3.3674   -3.3320   -1.0203 O   0  0  0  0  0  0  0  0  0  0  0  0
    4.2065   -0.9434   -1.7238 N   0  0  0  0  0  0  0  0  0  0  0  0
    5.3394   -0.0740   -1.4821 C   0  0  0  0  0  0  0  0  0  0  0  0
    5.5609    0.1555    0.0000 C   0  0  0  0  0  0  0  0  0  0  0  0
    4.2656    0.5356    0.6892 C   0  0  0  0  0  0  0  0  0  0  0  0
    3.2688    0.8250   -0.4137 C   0  0  0  0  0  0  0  0  0  0  0  0
    2.0342    1.4560    0.1180 C   0  0  0  0  0  0  0  0  0  0  0  0
    1.6163    2.5819   -0.2173 O   0  0  0  0  0  0  0  0  0  0  0  0
    1.2927    0.6880    1.0851 N   0  0  0  0  0  0  0  0  0  0  0  0
    0.1007    1.1899    1.6589 N   0  0  0  0  0  0  0  0  0  0  0  0
   -1.1517    0.9135    1.0153 C   0  0  0  0  0  0  0  0  0  0  0  0
   -1.2004    0.2351   -0.0431 O   0  0  0  0  0  0  0  0  0  0  0  0
   -2.3634    1.4750    1.6757 C   0  0  0  0  0  0  0  0  0  0  0  0
   -3.5934    1.1225    0.9177 C   0  0  0  0  0  0  0  0  0  0  0  0
   -4.1569    2.1405    0.1448 C   0  0  0  0  0  0  0  0  0  0  0  0
   -5.3146    1.8915   -0.6003 C   0  0  0  0  0  0  0  0  0  0  0  0
   -5.8816    0.6349   -0.5565 C   0  0  0  0  0  0  0  0  0  0  0  0
   -7.0172    0.4005   -1.2918 F   0  0  0  0  0  0  0  0  0  0  0  0
   -5.3262   -0.3921    0.2138 C   0  0  0  0  0  0  0  0  0  0  0  0
   -5.8819   -1.6314    0.2596 F   0  0  0  0  0  0  0  0  0  0  0  0
   -4.1688   -0.1299    0.9540 C   0  0  0  0  0  0  0  0  0  0  0  0
   -3.3697   -1.4968    2.0236 Br  0  0  0  0  0  0  0  0  0  0  0  0
    2.9586   -0.4247   -1.2050 C   0  0  0  0  0  0  0  0  0  0  0  0
  1  2  1  0
  2  3  2  0
  2  4  2  0
  2  5  1  0
  5  6  1  0
  6  7  1  0
  7  8  1  0
  8  9  1  0
  9 10  1  0
 10 11  2  0
 10 12  1  0
 12 13  1  0
 13 14  1  0
 14 15  2  0
 14 16  1  0
 16 17  1  0
 17 18  2  0
 18 19  1  0
 19 20  2  0
 20 21  1  0
 20 22  1  0
 22 23  1  0
 22 24  2  0
 24 25  1  0
  9 26  1  0
 26  5  1  0
 24 17  1  0
M  END
>  <ref_url>  (1) 
https://hippo.winokan.com

>  <submitter_name>  (1) 
Max Winokan

>  <submitter_email>  (1) 
max.winokan@diamond.ac.uk

>  <submitter_institution>  (1) 
DLS

>  <generation_date>  (1) 
2025-12-10

>  <method>  (1) 
openbind_a71ev2a_c2_elabs_scored_top80percent_despaghettified_products

>  <exports>  (1) 
exports

>  <gnina_score>  (1) 
gnina_score

>  <gnina_score_min>  (1) 
gnina_score_min

>  <smina_score_min>  (1) 
smina_score_min

>  <rmsd(smina/fragmenstein)>  (1) 
rmsd(smina/fragmenstein)

>  <HIPPO Pose ID>  (1) 
HIPPO Pose ID

>  <HIPPO Compound ID>  (1) 
HIPPO Compound ID

>  <smiles>  (1) 
smiles

>  <ref_pdb>  (1) 
protein reference

>  <ref_mols>  (1) 
fragment inspirations

>  <alias>  (1) 
alias

>  <distance_score>  (1) 
distance_score

>  <energy_score>  (1) 
energy_score

>  <inspiration_score>  (1) 
inspiration_score

>  <subsites>  (1) 
subsites

>  <tags>  (1) 
tags

$$$$
P534297
     RDKit          3D

 26 27  0  0  0  0  0  0  0  0999 V2000
    9.1856   15.4805   18.1134 C   0  0  0  0  0  0  0  0  0  0  0  0
   10.8913   15.3276   18.4921 S   0  0  0  0  0  0  0  0  0  0  0  0
   11.5730   16.4116   17.8353 O   0  0  0  0  0  0  0  0  0  0  0  0
   11.3299   13.9720   18.3560 O   0  0  0  0  0  0  0  0  0  0  0  0
   10.7885   15.6350   20.1147 N   0  0  0  0  0  0  0  0  0  0  0  0
   10.5784   16.9973   20.5589 C   0  0  0  0  0  0  0  0  0  0  0  0
   11.7718   17.2072   21.5067 C   0  0  0  0  0  0  0  0  0  0  0  0
   11.6617   16.3557   22.7457 C   0  0  0  0  0  0  0  0  0  0  0  0
   10.6438   15.2681   22.4844 C   0  0  2  0  0  0  0  0  0  0  0  0
   10.5516   14.4790   23.7386 C   0  0  0  0  0  0  0  0  0  0  0  0
   11.4076   13.8305   24.1959 O   0  0  0  0  0  0  0  0  0  0  0  0
    9.1213   14.7713   24.2645 N   0  0  0  0  0  0  0  0  0  0  0  0
    8.5249   14.3748   25.3424 N   0  0  0  0  0  0  0  0  0  0  0  0
    7.1290   14.7163   25.8956 C   0  0  0  0  0  0  0  0  0  0  0  0
    6.3013   15.4124   25.4728 O   0  0  0  0  0  0  0  0  0  0  0  0
    7.0859   13.9539   27.1750 C   0  0  0  0  0  0  0  0  0  0  0  0
    6.5502   12.5565   27.0032 C   0  0  0  0  0  0  0  0  0  0  0  0
    5.3909   12.3601   27.7768 C   0  0  0  0  0  0  0  0  0  0  0  0
    4.8373   11.1122   27.9199 C   0  0  0  0  0  0  0  0  0  0  0  0
    5.4162   10.0584   27.2569 C   0  0  0  0  0  0  0  0  0  0  0  0
    4.8913    8.8531   27.4521 F   0  0  0  0  0  0  0  0  0  0  0  0
    6.4972   10.2155   26.4090 C   0  0  0  0  0  0  0  0  0  0  0  0
    6.9770    9.1398   25.7646 F   0  0  0  0  0  0  0  0  0  0  0  0
    7.1021   11.4617   26.2859 C   0  0  0  0  0  0  0  0  0  0  0  0
    8.6899   11.4245   25.2356 Br  0  0  0  0  0  0  0  0  0  0  0  0
   10.8236   14.5781   21.1501 C   0  0  0  0  0  0  0  0  0  0  0  0
  1  2  1  0
  2  3  2  0
  2  4  2  0
  2  5  1  0
  5  6  1  0
  6  7  1  0
  7  8  1  0
  8  9  1  0
  9 10  1  1
 10 11  2  0
 10 12  1  0
 12 13  1  0
 13 14  1  0
 14 15  2  0
 14 16  1  0
 16 17  1  0
 17 18  2  0
 18 19  1  0
 19 20  2  0
 20 21  1  0
 20 22  1  0
 22 23  1  0
 22 24  2  0
 24 25  1  0
  9 26  1  0
 26  5  1  0
 24 17  1  0
M  END
>  <alias>  (1) 
None

>  <rmsd(smina/fragmenstein)>  (1) 
1.768

>  <smiles>  (1) 
CS(=O)(=O)N1CCC[C@H](C(=O)NNC(=O)Cc2ccc(F)c(F)c2Br)C1

>  <gnina_score>  (1) 
5.74

>  <inspiration_score>  (1) 
None

>  <energy_score>  (1) 
-1.538844

>  <distance_score>  (1) 
1.901711

>  <gnina_score_min>  (1) 
5.555

>  <inchikey>  (1) 
MTDUGZSGCUSJTK-JTQLQIEISA-N

>  <exports>  (1) 
['/opt/xchem-fragalysis-2/maxwin/BulkDock/OUTPUTS/openbind_a71ev2a_c2_elabs_1LOUU54.sdf', '/opt/xchem-fragalysis-2/maxwin/BulkDock/OUTPUTS/openbind_a71ev2a_c2_elabs_1LSYIDY.sdf']

>  <name>  (1) 
P534297

>  <ref_pdb>  (1) 
A4644b

>  <subsites>  (1) 
None

>  <HIPPO Pose ID>  (1) 
534297

>  <ref_mols>  (1) 
A4644b

>  <HIPPO Compound ID>  (1) 
317575

>  <tags>  (1) 
openbind_a71ev2a_c2_elabs,syndirella_product,openbind_a71ev2a_c2_elabs_scored,BulkDock Fragalysis export,openbind_a71ev2a_c2_elabs_scored_top80percent,openbind_a71ev2a_c2_elabs_scored_top80percent_despaghettified,syndirella_placed

>  <smina_score_min>  (1) 
-4.574

$$$$
P534466
     RDKit          3D

 32 35  0  0  0  0  0  0  0  0999 V2000
    9.4486    9.3023   23.5747 C   0  0  0  0  0  0  0  0  0  0  0  0
    8.5410   10.0198   24.4433 N   0  0  0  0  0  0  0  0  0  0  0  0
    8.1850   11.3369   24.3406 C   0  0  0  0  0  0  0  0  0  0  0  0
    7.1740   11.5232   25.2482 C   0  0  0  0  0  0  0  0  0  0  0  0
    6.3645   12.6596   25.4396 C   0  0  0  0  0  0  0  0  0  0  0  0
    6.1526   13.9140   24.6127 C   0  0  0  0  0  0  0  0  0  0  0  0
    6.9601   14.0206   23.3127 C   0  0  0  0  0  0  0  0  0  0  0  0
    6.8305   13.2167   22.4342 O   0  0  0  0  0  0  0  0  0  0  0  0
    7.8655   15.1217   23.4460 N   0  0  0  0  0  0  0  0  0  0  0  0
    8.8749   15.5144   22.6813 N   0  0  0  0  0  0  0  0  0  0  0  0
    9.0572   16.6960   21.9104 C   0  0  0  0  0  0  0  0  0  0  0  0
    8.3170   17.6029   21.6893 O   0  0  0  0  0  0  0  0  0  0  0  0
   10.4978   16.7840   21.3973 C   0  0  2  0  0  0  0  0  0  0  0  0
   10.7140   15.9931   20.1150 C   0  0  0  0  0  0  0  0  0  0  0  0
   10.9837   14.5228   20.3677 C   0  0  0  0  0  0  0  0  0  0  0  0
   11.9517   14.2714   21.5081 C   0  0  0  0  0  0  0  0  0  0  0  0
   11.4170   14.9322   22.7269 N   0  0  0  0  0  0  0  0  0  0  0  0
   11.9658   14.2854   24.2074 S   0  0  0  0  0  0  0  0  0  0  0  0
   11.6212   12.8787   24.2252 O   0  0  0  0  0  0  0  0  0  0  0  0
   13.3309   14.6996   24.4219 O   0  0  0  0  0  0  0  0  0  0  0  0
   10.9572   15.0748   25.4522 C   0  0  0  0  0  0  0  0  0  0  0  0
   11.3647   16.2685   26.0508 C   0  0  0  0  0  0  0  0  0  0  0  0
   10.6018   16.8392   27.0720 C   0  0  0  0  0  0  0  0  0  0  0  0
    9.4388   16.2092   27.5084 C   0  0  0  0  0  0  0  0  0  0  0  0
    9.0448   15.0036   26.9332 C   0  0  0  0  0  0  0  0  0  0  0  0
    9.8076   14.4332   25.9116 C   0  0  0  0  0  0  0  0  0  0  0  0
   11.5029   16.4040   22.4973 C   0  0  0  0  0  0  0  0  0  0  0  0
    5.4929   12.4509   26.5510 C   0  0  0  0  0  0  0  0  0  0  0  0
    5.3943   11.2449   27.3048 C   0  0  0  0  0  0  0  0  0  0  0  0
    6.1483   10.0976   27.0132 C   0  0  0  0  0  0  0  0  0  0  0  0
    7.0605   10.2659   25.9598 C   0  0  0  0  0  0  0  0  0  0  0  0
    7.9058    9.3667   25.4356 N   0  0  0  0  0  0  0  0  0  0  0  0
  1  2  1  0
  2  3  1  0
  3  4  2  0
  4  5  1  0
  5  6  1  0
  6  7  1  0
  7  8  2  0
  7  9  1  0
  9 10  1  0
 10 11  1  0
 11 12  2  0
 13 11  1  1
 13 14  1  0
 14 15  1  0
 15 16  1  0
 16 17  1  0
 17 18  1  0
 18 19  2  0
 18 20  2  0
 18 21  1  0
 21 22  2  0
 22 23  1  0
 23 24  2  0
 24 25  1  0
 25 26  2  0
 17 27  1  0
  5 28  2  0
 28 29  1  0
 29 30  2  0
 30 31  1  0
 31 32  2  0
 32  2  1  0
 31  4  1  0
 27 13  1  0
 26 21  1  0
M  END
>  <alias>  (2) 
None

>  <rmsd(smina/fragmenstein)>  (2) 
0.714

>  <smiles>  (2) 
Cn1cc2c(CC(=O)NNC(=O)[C@@H]3CCCN(S(=O)(=O)c4ccccc4)C3)cccc2n1

>  <gnina_score>  (2) 
6.189

>  <inspiration_score>  (2) 
None

>  <energy_score>  (2) 
-44.403378

>  <distance_score>  (2) 
1.888703

>  <gnina_score_min>  (2) 
5.937

>  <inchikey>  (2) 
TXPGKZFKYQMOTR-QGZVFWFLSA-N

>  <exports>  (2) 
['/opt/xchem-fragalysis-2/maxwin/BulkDock/OUTPUTS/openbind_a71ev2a_c2_elabs_1LOUU54.sdf', '/opt/xchem-fragalysis-2/maxwin/BulkDock/OUTPUTS/openbind_a71ev2a_c2_elabs_1LSYIDY.sdf']

>  <name>  (2) 
P534466

>  <ref_pdb>  (2) 
A3189a

>  <subsites>  (2) 
None

>  <HIPPO Pose ID>  (2) 
534466

>  <ref_mols>  (2) 
A3189a

>  <HIPPO Compound ID>  (2) 
317403

>  <tags>  (2) 
openbind_a71ev2a_c2_elabs,syndirella_product,openbind_a71ev2a_c2_elabs_scored,BulkDock Fragalysis export,openbind_a71ev2a_c2_elabs_scored_top80percent,openbind_a71ev2a_c2_elabs_scored_top80percent_despaghettified,syndirella_placed

>  <smina_score_min>  (2) 
-6.357

$$$$
P534468
     RDKit          3D

 22 24  0  0  0  0  0  0  0  0999 V2000
    5.8842   15.5248   25.2790 C   0  0  0  0  0  0  0  0  0  0  0  0
    6.8081   14.9568   26.7313 S   0  0  0  0  0  4  0  0  0  0  0  0
    5.8070   14.6260   27.8018 O   0  0  0  0  0  0  0  0  0  0  0  0
    7.3241   13.3520   26.0561 C   0  0  0  0  0  0  0  0  0  0  0  0
    6.4273   12.2778   26.1153 C   0  0  0  0  0  0  0  0  0  0  0  0
    6.7973   11.0204   25.6469 C   0  0  0  0  0  0  0  0  0  0  0  0
    8.0448   10.8287   25.0652 C   0  0  0  0  0  0  0  0  0  0  0  0
    8.9482   11.8837   25.0073 C   0  0  0  0  0  0  0  0  0  0  0  0
    8.6175   13.1429   25.5401 C   0  0  0  0  0  0  0  0  0  0  0  0
    9.7057   14.1814   25.6196 C   0  0  0  0  0  0  0  0  0  0  0  0
    9.7313   15.1550   24.4547 C   0  0  0  0  0  0  0  0  0  0  0  0
    9.1434   16.2020   24.5247 O   0  0  0  0  0  0  0  0  0  0  0  0
   10.5953   14.6388   23.4365 N   0  0  0  0  0  0  0  0  0  0  0  0
   12.1016   15.0354   23.7404 C   0  0  0  0  0  0  0  0  0  0  0  0
   12.7870   15.5865   22.5478 C   0  0  1  0  0  0  0  0  0  0  0  0
   12.3195   14.6286   21.4744 C   0  0  0  0  0  0  0  0  0  0  0  0
   10.9819   15.2267   21.9897 C   0  0  1  0  0  0  0  0  0  0  0  0
    9.7812   15.1675   21.0587 C   0  0  0  0  0  0  0  0  0  0  0  0
   10.1437   15.5852   19.6267 C   0  0  0  0  0  0  0  0  0  0  0  0
   10.6105   14.4533   18.8641 N   0  0  0  0  0  0  0  0  0  0  0  0
   10.0724   16.7441   19.3371 O   0  0  0  0  0  0  0  0  0  0  0  0
   11.7387   16.5720   22.0793 C   0  0  0  0  0  0  0  0  0  0  0  0
  2  1  1  6
  2  3  2  0
  2  4  1  0
  4  5  2  0
  5  6  1  0
  6  7  2  0
  7  8  1  0
  8  9  2  0
  9 10  1  0
 10 11  1  0
 11 12  2  0
 11 13  1  0
 13 14  1  0
 15 14  1  1
 15 16  1  0
 16 17  1  0
 17 18  1  6
 18 19  1  0
 19 20  1  0
 19 21  2  0
 17 22  1  0
  9  4  1  0
 17 13  1  0
 22 15  1  0
M  END
>  <alias>  (3) 
None

>  <rmsd(smina/fragmenstein)>  (3) 
1.163

>  <smiles>  (3) 
C[S@@](=O)c1ccccc1CC(=O)N1C[C@H]2C[C@]1(CC(N)=O)C2

>  <gnina_score>  (3) 
5.991

>  <inspiration_score>  (3) 
None

>  <energy_score>  (3) 
-18.125838

>  <distance_score>  (3) 
0.75786

>  <gnina_score_min>  (3) 
6.311

>  <inchikey>  (3) 
AWGARKCUQGTRGF-ZQNCNBDLSA-N

>  <exports>  (3) 
['/opt/xchem-fragalysis-2/maxwin/BulkDock/OUTPUTS/openbind_a71ev2a_c2_elabs_1LOUU54.sdf', '/opt/xchem-fragalysis-2/maxwin/BulkDock/OUTPUTS/openbind_a71ev2a_c2_elabs_1LSYIDY.sdf']

>  <name>  (3) 
P534468

>  <ref_pdb>  (3) 
A5262b

>  <subsites>  (3) 
None

>  <HIPPO Pose ID>  (3) 
534468

>  <ref_mols>  (3) 
A5262b

>  <HIPPO Compound ID>  (3) 
319848

>  <tags>  (3) 
openbind_a71ev2a_c2_elabs,syndirella_product,openbind_a71ev2a_c2_elabs_scored,BulkDock Fragalysis export,openbind_a71ev2a_c2_elabs_scored_top80percent,openbind_a71ev2a_c2_elabs_scored_6plus,openbind_a71ev2a_c2_elabs_scored_top80percent_despaghettified,syndirella_placed

>  <smina_score_min>  (3) 
-7.157

$$$$
P534476
     RDKit          3D

 26 29  0  0  0  0  0  0  0  0999 V2000
   11.6938   17.2912   21.8795 O   0  0  0  0  0  0  0  0  0  0  0  0
   10.8419   16.8248   21.1777 C   0  0  0  0  0  0  0  0  0  0  0  0
    9.8538   17.4559   20.3621 N   0  0  0  0  0  0  0  0  0  0  0  0
    9.5262   18.7688   20.2118 C   0  0  0  0  0  0  0  0  0  0  0  0
    9.7218   19.6887   21.1049 N   0  0  0  0  0  0  0  0  0  0  0  0
    8.8843   20.7463   20.9296 N   0  0  0  0  0  0  0  0  0  0  0  0
    8.1728   20.6546   19.8463 C   0  0  0  0  0  0  0  0  0  0  0  0
    8.5692   19.3497   18.9390 S   0  0  0  0  0  0  0  0  0  0  0  0
   10.6557   15.2851   21.1875 C   0  0  1  0  0  0  0  0  0  0  0  0
   11.7370   14.6292   22.0220 C   0  0  0  0  0  0  0  0  0  0  0  0
   11.4840   14.9861   23.4801 C   0  0  0  0  0  0  0  0  0  0  0  0
   10.0366   15.4806   23.6557 C   0  0  0  0  0  0  0  0  0  0  0  0
    9.0659   14.4028   23.3010 N   0  0  0  0  0  0  0  0  0  0  0  0
    7.9276   14.4639   24.1681 C   0  0  0  0  0  0  0  0  0  0  0  0
    6.8850   15.0516   24.0488 O   0  0  0  0  0  0  0  0  0  0  0  0
    8.2431   13.7026   25.4614 C   0  0  1  0  0  0  0  0  0  0  0  0
    7.6619   14.4899   26.6650 C   0  0  0  0  0  0  0  0  0  0  0  0
    6.2785   13.8962   26.9496 C   0  0  0  0  0  0  0  0  0  0  0  0
    6.4854   12.4808   26.5132 C   0  0  0  0  0  0  0  0  0  0  0  0
    5.7367   11.3766   26.8777 C   0  0  0  0  0  0  0  0  0  0  0  0
    6.1170   10.1338   26.3797 C   0  0  0  0  0  0  0  0  0  0  0  0
    7.2203   10.0168   25.5190 C   0  0  0  0  0  0  0  0  0  0  0  0
    7.9373   11.1431   25.1174 C   0  0  0  0  0  0  0  0  0  0  0  0
    9.3795   10.9370   23.9178 Br  0  0  0  0  0  0  0  0  0  0  0  0
    7.5719   12.3738   25.6307 C   0  0  0  0  0  0  0  0  0  0  0  0
    9.2821   14.9742   21.8837 C   0  0  0  0  0  0  0  0  0  0  0  0
  1  2  2  0
  2  3  1  0
  3  4  1  0
  4  5  2  0
  5  6  1  0
  6  7  2  0
  7  8  1  0
  9  2  1  1
  9 10  1  0
 10 11  1  0
 11 12  1  0
 12 13  1  0
 13 14  1  0
 14 15  2  0
 16 14  1  6
 16 17  1  0
 17 18  1  0
 18 19  1  0
 19 20  2  0
 20 21  1  0
 21 22  2  0
 22 23  1  0
 23 24  1  0
 23 25  2  0
 13 26  1  0
  8  4  1  0
 26  9  1  0
 25 16  1  0
 25 19  1  0
M  END
>  <alias>  (4) 
None

>  <rmsd(smina/fragmenstein)>  (4) 
0.584

>  <smiles>  (4) 
O=C(Nc1nncs1)[C@H]1CCCN(C(=O)[C@H]2CCc3cccc(Br)c32)C1

>  <gnina_score>  (4) 
6.062

>  <inspiration_score>  (4) 
None

>  <energy_score>  (4) 
-40.902251

>  <distance_score>  (4) 
1.446561

>  <gnina_score_min>  (4) 
6.098

>  <inchikey>  (4) 
QAOVMJPMRNKOGK-STQMWFEESA-N

>  <exports>  (4) 
['/opt/xchem-fragalysis-2/maxwin/BulkDock/OUTPUTS/openbind_a71ev2a_c2_elabs_1LOUU54.sdf', '/opt/xchem-fragalysis-2/maxwin/BulkDock/OUTPUTS/openbind_a71ev2a_c2_elabs_1LSYIDY.sdf']

>  <name>  (4) 
P534476

>  <ref_pdb>  (4) 
A4202b

>  <subsites>  (4) 
None

>  <HIPPO Pose ID>  (4) 
534476

>  <ref_mols>  (4) 
A4202b

>  <HIPPO Compound ID>  (4) 
320040

>  <tags>  (4) 
openbind_a71ev2a_c2_elabs,syndirella_product,openbind_a71ev2a_c2_elabs_scored,BulkDock Fragalysis export,openbind_a71ev2a_c2_elabs_scored_top80percent,openbind_a71ev2a_c2_elabs_scored_6plus,openbind_a71ev2a_c2_elabs_scored_top80percent_despaghettified,syndirella_placed

>  <smina_score_min>  (4) 
-3.198

$$$$
P534718
     RDKit          3D

 23 26  0  0  0  0  0  0  0  0999 V2000
   10.4364   16.2733   18.7116 C   0  0  0  0  0  0  0  0  0  0  0  0
   10.7672   15.9296   20.0541 N   0  0  0  0  0  0  0  0  0  0  0  0
   11.7374   15.0119   20.4052 C   0  0  0  0  0  0  0  0  0  0  0  0
   12.4028   14.3244   19.6609 O   0  0  0  0  0  0  0  0  0  0  0  0
   11.6790   15.0111   21.9171 C   0  0  1  0  0  0  0  0  0  0  0  0
   11.3695   16.4792   22.1382 C   0  0  0  0  0  0  0  0  0  0  0  0
   10.1555   16.5114   21.2438 C   0  0  2  0  0  0  0  0  0  0  0  0
    9.0623   15.5351   21.8220 C   0  0  0  0  0  0  0  0  0  0  0  0
    9.2757   14.6283   23.0562 N   0  0  0  0  0  0  0  0  0  0  0  0
    9.7152   14.9408   24.3780 C   0  0  0  0  0  0  0  0  0  0  0  0
   10.1191   15.9764   24.8463 O   0  0  0  0  0  0  0  0  0  0  0  0
    9.7497   13.7130   25.2612 C   0  0  0  0  0  0  0  0  0  0  0  0
    8.5592   12.8060   25.3409 C   0  0  0  0  0  0  0  0  0  0  0  0
    7.4293   13.1191   26.1413 C   0  0  0  0  0  0  0  0  0  0  0  0
    6.4239   12.1746   26.5246 C   0  0  0  0  0  0  0  0  0  0  0  0
    6.4558   10.8121   26.1605 C   0  0  0  0  0  0  0  0  0  0  0  0
    7.5281   10.4805   25.3182 C   0  0  0  0  0  0  0  0  0  0  0  0
    7.8760    9.2882   24.8047 N   0  0  0  0  0  0  0  0  0  0  0  0
    8.9352    9.5521   24.0045 N   0  0  0  0  0  0  0  0  0  0  0  0
    9.5240    8.5094   23.1970 C   0  0  0  0  0  0  0  0  0  0  0  0
    9.3487   10.8539   24.0496 C   0  0  0  0  0  0  0  0  0  0  0  0
    8.4892   11.4758   24.9124 C   0  0  0  0  0  0  0  0  0  0  0  0
   10.4452   14.1322   22.2163 C   0  0  0  0  0  0  0  0  0  0  0  0
  1  2  1  0
  2  3  1  0
  3  4  2  0
  3  5  1  0
  5  6  1  0
  6  7  1  0
  7  8  1  1
  8  9  1  0
  9 10  1  0
 10 11  2  0
 10 12  1  0
 12 13  1  0
 13 14  2  0
 14 15  1  0
 15 16  2  0
 16 17  1  0
 17 18  2  0
 18 19  1  0
 19 20  1  0
 19 21  1  0
 21 22  2  0
  9 23  1  0
  7  2  1  0
 22 13  1  0
  5 23  1  6
 22 17  1  0
M  END
>  <alias>  (5) 
None

>  <rmsd(smina/fragmenstein)>  (5) 
0.306

>  <smiles>  (5) 
CN1C(=O)[C@H]2C[C@@H]1CN(C(=O)Cc1cccc3nn(C)cc13)C2

>  <gnina_score>  (5) 
6.043

>  <inspiration_score>  (5) 
None

>  <energy_score>  (5) 
-62.669938

>  <distance_score>  (5) 
1.424526

>  <gnina_score_min>  (5) 
6.033

>  <inchikey>  (5) 
VRUGUSFWYPCDFG-QWHCGFSZSA-N

>  <exports>  (5) 
['/opt/xchem-fragalysis-2/maxwin/BulkDock/OUTPUTS/openbind_a71ev2a_c2_elabs_1LOUU54.sdf', '/opt/xchem-fragalysis-2/maxwin/BulkDock/OUTPUTS/openbind_a71ev2a_c2_elabs_1LSYIDY.sdf']

>  <name>  (5) 
P534718

>  <ref_pdb>  (5) 
A3188a

>  <subsites>  (5) 
None

>  <HIPPO Pose ID>  (5) 
534718

>  <ref_mols>  (5) 
A3188a

>  <HIPPO Compound ID>  (5) 
317302

>  <tags>  (5) 
openbind_a71ev2a_c2_elabs,syndirella_product,openbind_a71ev2a_c2_elabs_scored,BulkDock Fragalysis export,openbind_a71ev2a_c2_elabs_scored_top80percent,openbind_a71ev2a_c2_elabs_scored_6plus,openbind_a71ev2a_c2_elabs_scored_top80percent_despaghettified,syndirella_placed

>  <smina_score_min>  (5) 
-7.383

$$$$
P534720
     RDKit          3D

 27 29  0  0  0  0  0  0  0  0999 V2000
    9.5332    9.1921   23.3971 C   0  0  0  0  0  0  0  0  0  0  0  0
    8.6017    9.8474   24.2938 N   0  0  0  0  0  0  0  0  0  0  0  0
    8.3153   11.1886   24.3730 C   0  0  0  0  0  0  0  0  0  0  0  0
    7.3222   11.3021   25.3181 C   0  0  0  0  0  0  0  0  0  0  0  0
    6.5771   12.4327   25.7259 C   0  0  0  0  0  0  0  0  0  0  0  0
    6.3461   13.7781   25.0982 C   0  0  0  0  0  0  0  0  0  0  0  0
    7.0951   13.9952   23.8127 C   0  0  0  0  0  0  0  0  0  0  0  0
    6.7821   13.5918   22.7645 O   0  0  0  0  0  0  0  0  0  0  0  0
    8.3451   14.7897   24.2461 N   0  0  0  0  0  0  0  0  0  0  0  0
    9.3219   15.2839   23.5375 N   0  0  0  0  0  0  0  0  0  0  0  0
   10.5312   16.1365   23.9596 C   0  0  0  0  0  0  0  0  0  0  0  0
   10.8060   16.5970   24.9930 O   0  0  0  0  0  0  0  0  0  0  0  0
   11.4185   16.2295   22.7303 C   0  0  1  0  0  0  0  0  0  0  0  0
   12.1642   14.9125   22.6665 C   0  0  0  0  0  0  0  0  0  0  0  0
   11.7116   14.0569   21.5062 C   0  0  0  0  0  0  0  0  0  0  0  0
   11.9391   14.7812   20.1943 C   0  0  0  0  0  0  0  0  0  0  0  0
   11.3798   16.1273   20.2281 N   0  0  0  0  0  0  0  0  0  0  0  0
   10.7723   16.7139   18.7750 S   0  0  0  0  0  0  0  0  0  0  0  0
    9.5505   15.5531   18.4398 C   0  0  0  0  0  0  0  0  0  0  0  0
   11.7373   16.4892   17.7244 O   0  0  0  0  0  0  0  0  0  0  0  0
   10.1347   17.9690   19.0814 O   0  0  0  0  0  0  0  0  0  0  0  0
   10.6977   16.6177   21.4375 C   0  0  0  0  0  0  0  0  0  0  0  0
    5.7092   12.1265   26.8096 C   0  0  0  0  0  0  0  0  0  0  0  0
    5.4965   10.8315   27.3232 C   0  0  0  0  0  0  0  0  0  0  0  0
    6.1359    9.7043   26.7987 C   0  0  0  0  0  0  0  0  0  0  0  0
    7.0936    9.9598   25.8014 C   0  0  0  0  0  0  0  0  0  0  0  0
    7.8845    9.0962   25.1493 N   0  0  0  0  0  0  0  0  0  0  0  0
  1  2  1  0
  2  3  1  0
  3  4  2  0
  4  5  1  0
  5  6  1  0
  6  7  1  0
  7  8  2  0
  7  9  1  0
  9 10  1  0
 10 11  1  0
 11 12  2  0
 13 11  1  1
 13 14  1  0
 14 15  1  0
 15 16  1  0
 16 17  1  0
 17 18  1  0
 18 19  1  0
 18 20  2  0
 18 21  2  0
 17 22  1  0
  5 23  2  0
 23 24  1  0
 24 25  2  0
 25 26  1  0
 26 27  2  0
 27  2  1  0
 26  4  1  0
 22 13  1  0
M  END
>  <alias>  (6) 
None

>  <rmsd(smina/fragmenstein)>  (6) 
2.427

>  <smiles>  (6) 
Cn1cc2c(CC(=O)NNC(=O)[C@H]3CCCN(S(C)(=O)=O)C3)cccc2n1

>  <gnina_score>  (6) 
5.942

>  <inspiration_score>  (6) 
None

>  <energy_score>  (6) 
-17.629824

>  <distance_score>  (6) 
1.487671

>  <gnina_score_min>  (6) 
4.897

>  <inchikey>  (6) 
NSMPJRWLWIEBBH-ZDUSSCGKSA-N

>  <exports>  (6) 
['/opt/xchem-fragalysis-2/maxwin/BulkDock/OUTPUTS/openbind_a71ev2a_c2_elabs_1LOUU54.sdf', '/opt/xchem-fragalysis-2/maxwin/BulkDock/OUTPUTS/openbind_a71ev2a_c2_elabs_1LSYIDY.sdf']

>  <name>  (6) 
P534720

>  <ref_pdb>  (6) 
A3188a

>  <subsites>  (6) 
None

>  <HIPPO Pose ID>  (6) 
534720

>  <ref_mols>  (6) 
A3188a

>  <HIPPO Compound ID>  (6) 
317344

>  <tags>  (6) 
openbind_a71ev2a_c2_elabs,syndirella_product,openbind_a71ev2a_c2_elabs_scored,BulkDock Fragalysis export,openbind_a71ev2a_c2_elabs_scored_top80percent,openbind_a71ev2a_c2_elabs_scored_top80percent_despaghettified,syndirella_placed

>  <smina_score_min>  (6) 
-6.343

$$$$
P534798
     RDKit          3D

 18 19  0  0  0  0  0  0  0  0999 V2000
    7.5874   13.6232   22.1015 O   0  0  0  0  0  0  0  0  0  0  0  0
    8.3719   14.1240   22.8305 C   0  0  0  0  0  0  0  0  0  0  0  0
    8.3978   14.0056   24.3582 C   0  0  0  0  0  0  0  0  0  0  0  0
    7.4880   12.9760   25.0025 C   0  0  0  0  0  0  0  0  0  0  0  0
    6.4961   13.4425   25.8873 C   0  0  0  0  0  0  0  0  0  0  0  0
    5.6888   12.5621   26.6051 C   0  0  0  0  0  0  0  0  0  0  0  0
    5.8500   11.1973   26.4441 C   0  0  0  0  0  0  0  0  0  0  0  0
    6.8047   10.7189   25.5506 C   0  0  0  0  0  0  0  0  0  0  0  0
    7.6422   11.5879   24.8275 C   0  0  0  0  0  0  0  0  0  0  0  0
    8.9412   10.9868   23.7568 S   0  0  0  0  0  0  0  0  0  0  0  0
    8.5749    9.2229   23.6614 C   0  0  0  0  0  0  0  0  0  0  0  0
    9.6564    8.4960   22.9246 C   0  0  0  0  0  0  0  0  0  0  0  0
   10.8358    8.3846   23.7007 O   0  0  0  0  0  0  0  0  0  0  0  0
    9.5174   15.1036   22.5349 N   0  0  0  0  0  0  0  0  0  0  0  0
   10.8494   14.3480   22.2220 C   0  0  0  0  0  0  0  0  0  0  0  0
   10.6671   14.6028   20.7600 C   0  0  0  0  0  0  0  0  0  0  0  0
   11.8674   14.8025   19.9893 O   0  0  0  0  0  0  0  0  0  0  0  0
    9.9192   15.7971   21.2413 C   0  0  0  0  0  0  0  0  0  0  0  0
  1  2  2  0
  2  3  1  0
  3  4  1  0
  4  5  2  0
  5  6  1  0
  6  7  2  0
  7  8  1  0
  8  9  2  0
  9 10  1  0
 10 11  1  0
 11 12  1  0
 12 13  1  0
  2 14  1  0
 14 15  1  0
 15 16  1  0
 16 17  1  0
 16 18  1  0
  9  4  1  0
 18 14  1  0
M  END
>  <alias>  (7) 
None

>  <rmsd(smina/fragmenstein)>  (7) 
0.539

>  <smiles>  (7) 
O=C(Cc1ccccc1SCCO)N1CC(O)C1

>  <gnina_score>  (7) 
4.913

>  <inspiration_score>  (7) 
None

>  <energy_score>  (7) 
-4.848673

>  <distance_score>  (7) 
0.854804

>  <gnina_score_min>  (7) 
4.736

>  <inchikey>  (7) 
VPNMZZGOSJFNAR-UHFFFAOYSA-N

>  <exports>  (7) 
['/opt/xchem-fragalysis-2/maxwin/BulkDock/OUTPUTS/openbind_a71ev2a_c2_elabs_1LOUU54.sdf', '/opt/xchem-fragalysis-2/maxwin/BulkDock/OUTPUTS/openbind_a71ev2a_c2_elabs_1LSYIDY.sdf']

>  <name>  (7) 
P534798

>  <ref_pdb>  (7) 
A4715a

>  <subsites>  (7) 
None

>  <HIPPO Pose ID>  (7) 
534798

>  <ref_mols>  (7) 
A4715a

>  <HIPPO Compound ID>  (7) 
324500

>  <tags>  (7) 
openbind_a71ev2a_c2_elabs,syndirella_product,openbind_a71ev2a_c2_elabs_scored,BulkDock Fragalysis export,openbind_a71ev2a_c2_elabs_scored_top80percent,openbind_a71ev2a_c2_elabs_scored_top80percent_despaghettified,syndirella_placed

>  <smina_score_min>  (7) 
-5.709

$$$$
P534800
     RDKit          3D

 18 20  0  0  0  0  0  0  0  0999 V2000
    7.5336   13.7131   21.9170 O   0  0  0  0  0  0  0  0  0  0  0  0
    8.2471   14.2688   22.6794 C   0  0  0  0  0  0  0  0  0  0  0  0
    8.1343   14.2128   24.2111 C   0  0  0  0  0  0  0  0  0  0  0  0
    7.4630   12.9990   24.8445 C   0  0  0  0  0  0  0  0  0  0  0  0
    6.4539   13.2484   25.7979 C   0  0  0  0  0  0  0  0  0  0  0  0
    5.8183   12.2104   26.4777 C   0  0  0  0  0  0  0  0  0  0  0  0
    6.1827   10.8992   26.2219 C   0  0  0  0  0  0  0  0  0  0  0  0
    7.1882   10.6335   25.2932 C   0  0  0  0  0  0  0  0  0  0  0  0
    7.8492   11.6636   24.6014 C   0  0  0  0  0  0  0  0  0  0  0  0
    9.1219   11.3504   23.3938 S   0  0  0  0  0  0  0  0  0  0  0  0
    9.6417    9.7630   23.6920 C   0  0  0  0  0  0  0  0  0  0  0  0
    8.8324    8.5542   23.4341 C   0  0  0  0  0  0  0  0  0  0  0  0
    9.9813    8.8653   22.5612 C   0  0  0  0  0  0  0  0  0  0  0  0
    9.4045   15.2486   22.4242 N   0  0  0  0  0  0  0  0  0  0  0  0
   10.7630   14.4997   22.2727 C   0  0  0  0  0  0  0  0  0  0  0  0
   10.6935   14.6474   20.7873 C   0  0  0  0  0  0  0  0  0  0  0  0
   11.9462   14.7674   20.0833 O   0  0  0  0  0  0  0  0  0  0  0  0
    9.9097   15.8719   21.1280 C   0  0  0  0  0  0  0  0  0  0  0  0
  1  2  2  0
  2  3  1  0
  3  4  1  0
  4  5  2  0
  5  6  1  0
  6  7  2  0
  7  8  1  0
  8  9  2  0
  9 10  1  0
 10 11  1  0
 11 12  1  0
 12 13  1  0
  2 14  1  0
 14 15  1  0
 15 16  1  0
 16 17  1  0
 16 18  1  0
  9  4  1  0
 13 11  1  0
 18 14  1  0
M  END
>  <alias>  (8) 
None

>  <rmsd(smina/fragmenstein)>  (8) 
0.598

>  <smiles>  (8) 
O=C(Cc1ccccc1SC1CC1)N1CC(O)C1

>  <gnina_score>  (8) 
5.182

>  <inspiration_score>  (8) 
None

>  <energy_score>  (8) 
-0.132266

>  <distance_score>  (8) 
0.866144

>  <gnina_score_min>  (8) 
5.001

>  <inchikey>  (8) 
QNQYCYMVWZZAKP-UHFFFAOYSA-N

>  <exports>  (8) 
['/opt/xchem-fragalysis-2/maxwin/BulkDock/OUTPUTS/openbind_a71ev2a_c2_elabs_1LOUU54.sdf', '/opt/xchem-fragalysis-2/maxwin/BulkDock/OUTPUTS/openbind_a71ev2a_c2_elabs_1LSYIDY.sdf']

>  <name>  (8) 
P534800

>  <ref_pdb>  (8) 
A4715a

>  <subsites>  (8) 
None

>  <HIPPO Pose ID>  (8) 
534800

>  <ref_mols>  (8) 
A4715a

>  <HIPPO Compound ID>  (8) 
324502

>  <tags>  (8) 
openbind_a71ev2a_c2_elabs,syndirella_product,openbind_a71ev2a_c2_elabs_scored,BulkDock Fragalysis export,openbind_a71ev2a_c2_elabs_scored_top80percent,openbind_a71ev2a_c2_elabs_scored_top80percent_despaghettified,syndirella_placed

>  <smina_score_min>  (8) 
-4.977

$$$$
P534801
     RDKit          3D

 18 19  0  0  0  0  0  0  0  0999 V2000
   10.4020    8.7107   23.5182 C   0  0  0  0  0  0  0  0  0  0  0  0
    9.2765    9.6481   23.1389 C   0  0  0  0  0  0  0  0  0  0  0  0
    8.0201    8.9157   23.4283 C   0  0  0  0  0  0  0  0  0  0  0  0
    9.3858   11.3552   23.8281 S   0  0  0  0  0  0  0  0  0  0  0  0
    7.9127   11.7371   24.7920 C   0  0  0  0  0  0  0  0  0  0  0  0
    7.2991   10.7883   25.6227 C   0  0  0  0  0  0  0  0  0  0  0  0
    6.1630   11.0627   26.3845 C   0  0  0  0  0  0  0  0  0  0  0  0
    5.6458   12.3421   26.3885 C   0  0  0  0  0  0  0  0  0  0  0  0
    6.2718   13.3302   25.6352 C   0  0  0  0  0  0  0  0  0  0  0  0
    7.4050   13.0523   24.8384 C   0  0  0  0  0  0  0  0  0  0  0  0
    8.0463   14.2357   24.1392 C   0  0  0  0  0  0  0  0  0  0  0  0
    8.1050   14.1569   22.6193 C   0  0  0  0  0  0  0  0  0  0  0  0
    7.3373   13.5651   21.9435 O   0  0  0  0  0  0  0  0  0  0  0  0
    9.3326   14.9828   22.2308 N   0  0  0  0  0  0  0  0  0  0  0  0
    9.8704   15.3712   20.8671 C   0  0  0  0  0  0  0  0  0  0  0  0
   11.2816   15.0321   21.2293 C   0  0  0  0  0  0  0  0  0  0  0  0
   12.0995   14.4146   20.2132 O   0  0  0  0  0  0  0  0  0  0  0  0
   10.6161   14.1059   22.1857 C   0  0  0  0  0  0  0  0  0  0  0  0
  1  2  1  0
  2  3  1  0
  2  4  1  0
  4  5  1  0
  5  6  2  0
  6  7  1  0
  7  8  2  0
  8  9  1  0
  9 10  2  0
 10 11  1  0
 11 12  1  0
 12 13  2  0
 12 14  1  0
 14 15  1  0
 15 16  1  0
 16 17  1  0
 16 18  1  0
 10  5  1  0
 18 14  1  0
M  END
>  <alias>  (9) 
None

>  <rmsd(smina/fragmenstein)>  (9) 
2.337

>  <smiles>  (9) 
CC(C)Sc1ccccc1CC(=O)N1CC(O)C1

>  <gnina_score>  (9) 
5.154

>  <inspiration_score>  (9) 
None

>  <energy_score>  (9) 
-3.609927

>  <distance_score>  (9) 
0.863512

>  <gnina_score_min>  (9) 
4.803

>  <inchikey>  (9) 
MNEBLRPEJGWQJI-UHFFFAOYSA-N

>  <exports>  (9) 
['/opt/xchem-fragalysis-2/maxwin/BulkDock/OUTPUTS/openbind_a71ev2a_c2_elabs_1LOUU54.sdf', '/opt/xchem-fragalysis-2/maxwin/BulkDock/OUTPUTS/openbind_a71ev2a_c2_elabs_1LSYIDY.sdf']

>  <name>  (9) 
P534801

>  <ref_pdb>  (9) 
A4715a

>  <subsites>  (9) 
None

>  <HIPPO Pose ID>  (9) 
534801

>  <ref_mols>  (9) 
A4715a

>  <HIPPO Compound ID>  (9) 
324503

>  <tags>  (9) 
openbind_a71ev2a_c2_elabs,syndirella_product,openbind_a71ev2a_c2_elabs_scored,BulkDock Fragalysis export,openbind_a71ev2a_c2_elabs_scored_top80percent,openbind_a71ev2a_c2_elabs_scored_top80percent_despaghettified,syndirella_placed

>  <smina_score_min>  (9) 
-5.67

$$$$
P534802
     RDKit          3D

 19 20  0  0  0  0  0  0  0  0999 V2000
    9.6951    9.0387   22.5872 C   0  0  0  0  0  0  0  0  0  0  0  0
    9.1571    9.8229   23.7762 C   0  0  2  0  0  0  0  0  0  0  0  0
    8.0163    9.0255   24.3532 C   0  0  0  0  0  0  0  0  0  0  0  0
    7.4655    9.3538   25.6459 N   0  0  0  0  0  0  0  0  0  0  0  0
    8.7360   11.5163   23.2801 S   0  0  0  0  0  0  0  0  0  0  0  0
    7.8548   12.2945   24.6189 C   0  0  0  0  0  0  0  0  0  0  0  0
    6.6063   11.8521   25.0385 C   0  0  0  0  0  0  0  0  0  0  0  0
    5.8923   12.4254   26.0882 C   0  0  0  0  0  0  0  0  0  0  0  0
    6.3809   13.5728   26.6742 C   0  0  0  0  0  0  0  0  0  0  0  0
    7.5519   14.1371   26.1752 C   0  0  0  0  0  0  0  0  0  0  0  0
    8.2890   13.5054   25.1506 C   0  0  0  0  0  0  0  0  0  0  0  0
    9.4104   14.2536   24.4779 C   0  0  0  0  0  0  0  0  0  0  0  0
    8.9258   14.8076   23.1248 C   0  0  0  0  0  0  0  0  0  0  0  0
    7.7917   14.9096   22.8243 O   0  0  0  0  0  0  0  0  0  0  0  0
   10.1733   15.1803   22.3650 N   0  0  0  0  0  0  0  0  0  0  0  0
   10.3464   15.8855   21.0388 C   0  0  0  0  0  0  0  0  0  0  0  0
   11.5183   14.9856   20.7304 C   0  0  0  0  0  0  0  0  0  0  0  0
   12.7947   15.3188   21.3056 O   0  0  0  0  0  0  0  0  0  0  0  0
   10.6743   14.0167   21.5049 C   0  0  0  0  0  0  0  0  0  0  0  0
  2  1  1  6
  2  3  1  0
  3  4  1  0
  2  5  1  0
  5  6  1  0
  6  7  2  0
  7  8  1  0
  8  9  2  0
  9 10  1  0
 10 11  2  0
 11 12  1  0
 12 13  1  0
 13 14  2  0
 13 15  1  0
 15 16  1  0
 16 17  1  0
 17 18  1  0
 17 19  1  0
 11  6  1  0
 19 15  1  0
M  END
>  <alias>  (10) 
None

>  <rmsd(smina/fragmenstein)>  (10) 
0.708

>  <smiles>  (10) 
C[C@H](CN)Sc1ccccc1CC(=O)N1CC(O)C1

>  <gnina_score>  (10) 
5.004

>  <inspiration_score>  (10) 
None

>  <energy_score>  (10) 
-6.762219

>  <distance_score>  (10) 
1.338586

>  <gnina_score_min>  (10) 
4.914

>  <inchikey>  (10) 
JXDHQFSBTPXLHQ-SNVBAGLBSA-N

>  <exports>  (10) 
['/opt/xchem-fragalysis-2/maxwin/BulkDock/OUTPUTS/openbind_a71ev2a_c2_elabs_1LOUU54.sdf', '/opt/xchem-fragalysis-2/maxwin/BulkDock/OUTPUTS/openbind_a71ev2a_c2_elabs_1LSYIDY.sdf']

>  <name>  (10) 
P534802

>  <ref_pdb>  (10) 
A4715a

>  <subsites>  (10) 
None

>  <HIPPO Pose ID>  (10) 
534802

>  <ref_mols>  (10) 
A4715a

>  <HIPPO Compound ID>  (10) 
324505

>  <tags>  (10) 
openbind_a71ev2a_c2_elabs,syndirella_product,openbind_a71ev2a_c2_elabs_scored,BulkDock Fragalysis export,openbind_a71ev2a_c2_elabs_scored_top80percent,openbind_a71ev2a_c2_elabs_scored_top80percent_despaghettified,syndirella_placed

>  <smina_score_min>  (10) 
-3.807

$$$$
P534803
     RDKit          3D

 19 20  0  0  0  0  0  0  0  0999 V2000
   10.6115    8.0502   23.5631 O   0  0  0  0  0  0  0  0  0  0  0  0
    9.8031    8.8117   23.0638 C   0  0  0  0  0  0  0  0  0  0  0  0
    9.9981    9.3613   21.8588 O   0  0  0  0  0  0  0  0  0  0  0  0
    8.5728    9.3230   23.7194 C   0  0  0  0  0  0  0  0  0  0  0  0
    8.8060   11.1076   23.9318 S   0  0  0  0  0  0  0  0  0  0  0  0
    7.4498   11.6044   24.9613 C   0  0  0  0  0  0  0  0  0  0  0  0
    6.7102   10.6697   25.7033 C   0  0  0  0  0  0  0  0  0  0  0  0
    5.7354   11.0725   26.6103 C   0  0  0  0  0  0  0  0  0  0  0  0
    5.4630   12.4210   26.7679 C   0  0  0  0  0  0  0  0  0  0  0  0
    6.1660   13.3634   26.0192 C   0  0  0  0  0  0  0  0  0  0  0  0
    7.1639   12.9782   25.1053 C   0  0  0  0  0  0  0  0  0  0  0  0
    7.9218   14.0895   24.3898 C   0  0  0  0  0  0  0  0  0  0  0  0
    7.9839   14.0149   22.8587 C   0  0  0  0  0  0  0  0  0  0  0  0
    7.2009   13.4487   22.1778 O   0  0  0  0  0  0  0  0  0  0  0  0
    9.2162   14.8390   22.4748 N   0  0  0  0  0  0  0  0  0  0  0  0
    9.7389   15.2566   21.1170 C   0  0  0  0  0  0  0  0  0  0  0  0
   11.1591   15.0106   21.5551 C   0  0  0  0  0  0  0  0  0  0  0  0
   12.1071   14.5597   20.5683 O   0  0  0  0  0  0  0  0  0  0  0  0
   10.4943   13.9483   22.3884 C   0  0  0  0  0  0  0  0  0  0  0  0
  1  2  2  0
  2  3  1  0
  2  4  1  0
  4  5  1  0
  5  6  1  0
  6  7  2  0
  7  8  1  0
  8  9  2  0
  9 10  1  0
 10 11  2  0
 11 12  1  0
 12 13  1  0
 13 14  2  0
 13 15  1  0
 15 16  1  0
 16 17  1  0
 17 18  1  0
 17 19  1  0
 11  6  1  0
 19 15  1  0
M  END
>  <alias>  (11) 
None

>  <rmsd(smina/fragmenstein)>  (11) 
0.332

>  <smiles>  (11) 
O=C(O)CSc1ccccc1CC(=O)N1CC(O)C1

>  <gnina_score>  (11) 
5.01

>  <inspiration_score>  (11) 
None

>  <energy_score>  (11) 
-12.746522

>  <distance_score>  (11) 
0.926101

>  <gnina_score_min>  (11) 
4.795

>  <inchikey>  (11) 
OJGWFUGGGUFXRM-UHFFFAOYSA-N

>  <exports>  (11) 
['/opt/xchem-fragalysis-2/maxwin/BulkDock/OUTPUTS/openbind_a71ev2a_c2_elabs_1LOUU54.sdf', '/opt/xchem-fragalysis-2/maxwin/BulkDock/OUTPUTS/openbind_a71ev2a_c2_elabs_1LSYIDY.sdf']

>  <name>  (11) 
P534803

>  <ref_pdb>  (11) 
A4715a

>  <subsites>  (11) 
None

>  <HIPPO Pose ID>  (11) 
534803

>  <ref_mols>  (11) 
A4715a

>  <HIPPO Compound ID>  (11) 
324507

>  <tags>  (11) 
openbind_a71ev2a_c2_elabs,syndirella_product,openbind_a71ev2a_c2_elabs_scored,BulkDock Fragalysis export,openbind_a71ev2a_c2_elabs_scored_top80percent,openbind_a71ev2a_c2_elabs_scored_top80percent_despaghettified,syndirella_placed

>  <smina_score_min>  (11) 
-5.536

$$$$
P534807
     RDKit          3D

 19 20  0  0  0  0  0  0  0  0999 V2000
    8.7517    7.7620   22.3080 C   0  0  0  0  0  0  0  0  0  0  0  0
    9.7006    8.0594   23.3570 N   0  0  0  0  0  0  0  0  0  0  0  0
    9.8018    9.4959   23.4494 C   0  0  0  0  0  0  0  0  0  0  0  0
    8.5487   10.0349   24.0669 C   0  0  0  0  0  0  0  0  0  0  0  0
    8.8181   11.7820   24.2847 S   0  0  0  0  0  0  0  0  0  0  0  0
    7.3188   12.2489   25.0965 C   0  0  0  0  0  0  0  0  0  0  0  0
    6.6108   11.3515   25.9190 C   0  0  0  0  0  0  0  0  0  0  0  0
    5.5006   11.7614   26.6427 C   0  0  0  0  0  0  0  0  0  0  0  0
    5.0801   13.0765   26.5434 C   0  0  0  0  0  0  0  0  0  0  0  0
    5.7649   13.9733   25.7195 C   0  0  0  0  0  0  0  0  0  0  0  0
    6.8875   13.5775   24.9762 C   0  0  0  0  0  0  0  0  0  0  0  0
    7.6133   14.6245   24.1412 C   0  0  0  0  0  0  0  0  0  0  0  0
    7.7894   14.3197   22.6416 C   0  0  0  0  0  0  0  0  0  0  0  0
    7.0029   13.7253   21.9872 O   0  0  0  0  0  0  0  0  0  0  0  0
    9.0900   15.0248   22.2320 N   0  0  0  0  0  0  0  0  0  0  0  0
    9.6979   15.2554   20.8649 C   0  0  0  0  0  0  0  0  0  0  0  0
   11.0704   14.8629   21.3133 C   0  0  0  0  0  0  0  0  0  0  0  0
   11.9668   15.8617   21.8203 O   0  0  0  0  0  0  0  0  0  0  0  0
   10.3175   14.0532   22.3109 C   0  0  0  0  0  0  0  0  0  0  0  0
  1  2  1  0
  2  3  1  0
  3  4  1  0
  4  5  1  0
  5  6  1  0
  6  7  2  0
  7  8  1  0
  8  9  2  0
  9 10  1  0
 10 11  2  0
 11 12  1  0
 12 13  1  0
 13 14  2  0
 13 15  1  0
 15 16  1  0
 16 17  1  0
 17 18  1  0
 17 19  1  0
 11  6  1  0
 19 15  1  0
M  END
>  <alias>  (12) 
None

>  <rmsd(smina/fragmenstein)>  (12) 
1.442

>  <smiles>  (12) 
CNCCSc1ccccc1CC(=O)N1CC(O)C1

>  <gnina_score>  (12) 
4.893

>  <inspiration_score>  (12) 
None

>  <energy_score>  (12) 
-8.984577

>  <distance_score>  (12) 
1.498614

>  <gnina_score_min>  (12) 
4.658

>  <inchikey>  (12) 
PYEGVUOIJFTSDB-UHFFFAOYSA-N

>  <exports>  (12) 
['/opt/xchem-fragalysis-2/maxwin/BulkDock/OUTPUTS/openbind_a71ev2a_c2_elabs_1LOUU54.sdf', '/opt/xchem-fragalysis-2/maxwin/BulkDock/OUTPUTS/openbind_a71ev2a_c2_elabs_1LSYIDY.sdf']

>  <name>  (12) 
P534807

>  <ref_pdb>  (12) 
A4715a

>  <subsites>  (12) 
None

>  <HIPPO Pose ID>  (12) 
534807

>  <ref_mols>  (12) 
A4715a

>  <HIPPO Compound ID>  (12) 
324516

>  <tags>  (12) 
openbind_a71ev2a_c2_elabs,syndirella_product,openbind_a71ev2a_c2_elabs_scored,BulkDock Fragalysis export,openbind_a71ev2a_c2_elabs_scored_top80percent,openbind_a71ev2a_c2_elabs_scored_top80percent_despaghettified,syndirella_placed

>  <smina_score_min>  (12) 
-5.309

$$$$
P534811
     RDKit          3D

 19 20  0  0  0  0  0  0  0  0999 V2000
   10.5984    8.6557   23.5766 C   0  0  0  0  0  0  0  0  0  0  0  0
    9.4923    9.5219   23.0241 C   0  0  1  0  0  0  0  0  0  0  0  0
    8.2747    8.6888   23.1586 C   0  0  0  0  0  0  0  0  0  0  0  0
    8.3581    7.6178   22.2275 O   0  0  0  0  0  0  0  0  0  0  0  0
    9.4523   11.2391   23.6752 S   0  0  0  0  0  0  0  0  0  0  0  0
    7.9859   11.5437   24.6634 C   0  0  0  0  0  0  0  0  0  0  0  0
    7.3335   10.5544   25.4089 C   0  0  0  0  0  0  0  0  0  0  0  0
    6.2151   10.8200   26.2027 C   0  0  0  0  0  0  0  0  0  0  0  0
    5.7457   12.1149   26.3100 C   0  0  0  0  0  0  0  0  0  0  0  0
    6.4028   13.1332   25.6293 C   0  0  0  0  0  0  0  0  0  0  0  0
    7.5252   12.8715   24.8130 C   0  0  0  0  0  0  0  0  0  0  0  0
    8.2285   14.0800   24.2216 C   0  0  0  0  0  0  0  0  0  0  0  0
    8.2902   14.1647   22.7000 C   0  0  0  0  0  0  0  0  0  0  0  0
    7.5876   13.5847   21.9468 O   0  0  0  0  0  0  0  0  0  0  0  0
    9.3866   15.2035   22.4334 N   0  0  0  0  0  0  0  0  0  0  0  0
   10.7727   14.5298   22.2379 C   0  0  0  0  0  0  0  0  0  0  0  0
   10.6089   14.6562   20.7556 C   0  0  0  0  0  0  0  0  0  0  0  0
   11.8201   14.7976   19.9940 O   0  0  0  0  0  0  0  0  0  0  0  0
    9.8270   15.8705   21.1368 C   0  0  0  0  0  0  0  0  0  0  0  0
  2  1  1  1
  2  3  1  0
  3  4  1  0
  2  5  1  0
  5  6  1  0
  6  7  2  0
  7  8  1  0
  8  9  2  0
  9 10  1  0
 10 11  2  0
 11 12  1  0
 12 13  1  0
 13 14  2  0
 13 15  1  0
 15 16  1  0
 16 17  1  0
 17 18  1  0
 17 19  1  0
 11  6  1  0
 19 15  1  0
M  END
>  <alias>  (13) 
None

>  <rmsd(smina/fragmenstein)>  (13) 
2.59

>  <smiles>  (13) 
C[C@@H](CO)Sc1ccccc1CC(=O)N1CC(O)C1

>  <gnina_score>  (13) 
5.158

>  <inspiration_score>  (13) 
None

>  <energy_score>  (13) 
-1.490723

>  <distance_score>  (13) 
0.819944

>  <gnina_score_min>  (13) 
4.716

>  <inchikey>  (13) 
XKQLKRZJZVUVPD-JTQLQIEISA-N

>  <exports>  (13) 
['/opt/xchem-fragalysis-2/maxwin/BulkDock/OUTPUTS/openbind_a71ev2a_c2_elabs_1LOUU54.sdf', '/opt/xchem-fragalysis-2/maxwin/BulkDock/OUTPUTS/openbind_a71ev2a_c2_elabs_1LSYIDY.sdf']

>  <name>  (13) 
P534811

>  <ref_pdb>  (13) 
A4715a

>  <subsites>  (13) 
None

>  <HIPPO Pose ID>  (13) 
534811

>  <ref_mols>  (13) 
A4715a

>  <HIPPO Compound ID>  (13) 
324522

>  <tags>  (13) 
openbind_a71ev2a_c2_elabs,syndirella_product,openbind_a71ev2a_c2_elabs_scored,BulkDock Fragalysis export,openbind_a71ev2a_c2_elabs_scored_top80percent,openbind_a71ev2a_c2_elabs_scored_top80percent_despaghettified,syndirella_placed

>  <smina_score_min>  (13) 
-5.606

$$$$
P534812
     RDKit          3D

 19 20  0  0  0  0  0  0  0  0999 V2000
    9.9776    9.2035   22.0678 C   0  0  0  0  0  0  0  0  0  0  0  0
    9.1618    8.4631   23.0620 C   0  0  2  0  0  0  0  0  0  0  0  0
    8.4362    7.5039   22.3004 O   0  0  0  0  0  0  0  0  0  0  0  0
    8.2495    9.2941   23.9275 C   0  0  0  0  0  0  0  0  0  0  0  0
    8.6920   11.0378   24.1326 S   0  0  0  0  0  0  0  0  0  0  0  0
    7.3564   11.6631   25.1198 C   0  0  0  0  0  0  0  0  0  0  0  0
    6.5491   10.8055   25.8859 C   0  0  0  0  0  0  0  0  0  0  0  0
    5.5683   11.2999   26.7373 C   0  0  0  0  0  0  0  0  0  0  0  0
    5.3557   12.6649   26.8123 C   0  0  0  0  0  0  0  0  0  0  0  0
    6.1357   13.5312   26.0491 C   0  0  0  0  0  0  0  0  0  0  0  0
    7.1501   13.0521   25.2006 C   0  0  0  0  0  0  0  0  0  0  0  0
    8.0246   14.0800   24.5084 C   0  0  0  0  0  0  0  0  0  0  0  0
    8.0842   14.0747   22.9760 C   0  0  0  0  0  0  0  0  0  0  0  0
    7.3682   13.4858   22.2427 O   0  0  0  0  0  0  0  0  0  0  0  0
    9.2068   15.0788   22.6740 N   0  0  0  0  0  0  0  0  0  0  0  0
    9.6640   15.6907   21.3521 C   0  0  0  0  0  0  0  0  0  0  0  0
   10.4268   14.4578   21.0165 C   0  0  0  0  0  0  0  0  0  0  0  0
   11.6401   14.5565   20.2512 O   0  0  0  0  0  0  0  0  0  0  0  0
   10.5782   14.3646   22.5034 C   0  0  0  0  0  0  0  0  0  0  0  0
  2  1  1  6
  2  3  1  0
  2  4  1  0
  4  5  1  0
  5  6  1  0
  6  7  2  0
  7  8  1  0
  8  9  2  0
  9 10  1  0
 10 11  2  0
 11 12  1  0
 12 13  1  0
 13 14  2  0
 13 15  1  0
 15 16  1  0
 16 17  1  0
 17 18  1  0
 17 19  1  0
 11  6  1  0
 19 15  1  0
M  END
>  <alias>  (14) 
None

>  <rmsd(smina/fragmenstein)>  (14) 
0.791

>  <smiles>  (14) 
C[C@H](O)CSc1ccccc1CC(=O)N1CC(O)C1

>  <gnina_score>  (14) 
5.071

>  <inspiration_score>  (14) 
None

>  <energy_score>  (14) 
-3.906183

>  <distance_score>  (14) 
1.096887

>  <gnina_score_min>  (14) 
4.897

>  <inchikey>  (14) 
WTQSFGKIJWZBCN-JTQLQIEISA-N

>  <exports>  (14) 
['/opt/xchem-fragalysis-2/maxwin/BulkDock/OUTPUTS/openbind_a71ev2a_c2_elabs_1LOUU54.sdf', '/opt/xchem-fragalysis-2/maxwin/BulkDock/OUTPUTS/openbind_a71ev2a_c2_elabs_1LSYIDY.sdf']

>  <name>  (14) 
P534812

>  <ref_pdb>  (14) 
A4715a

>  <subsites>  (14) 
None

>  <HIPPO Pose ID>  (14) 
534812

>  <ref_mols>  (14) 
A4715a

>  <HIPPO Compound ID>  (14) 
324523

>  <tags>  (14) 
openbind_a71ev2a_c2_elabs,syndirella_product,openbind_a71ev2a_c2_elabs_scored,BulkDock Fragalysis export,openbind_a71ev2a_c2_elabs_scored_top80percent,openbind_a71ev2a_c2_elabs_scored_top80percent_despaghettified,syndirella_placed

>  <smina_score_min>  (14) 
-4.542

$$$$
P534815
     RDKit          3D

 19 20  0  0  0  0  0  0  0  0999 V2000
    9.6602    7.6821   23.4646 C   0  0  0  0  0  0  0  0  0  0  0  0
    9.0973    8.9634   22.9783 C   0  0  2  0  0  0  0  0  0  0  0  0
    9.7714    9.2246   21.7391 N   0  0  0  0  0  0  0  0  0  0  0  0
    9.4629    9.9757   24.0080 C   0  0  0  0  0  0  0  0  0  0  0  0
    8.9559   11.6188   23.5597 S   0  0  0  0  0  0  0  0  0  0  0  0
    7.5905   11.9481   24.6476 C   0  0  0  0  0  0  0  0  0  0  0  0
    6.8943   10.9269   25.3208 C   0  0  0  0  0  0  0  0  0  0  0  0
    5.9347   11.2200   26.2840 C   0  0  0  0  0  0  0  0  0  0  0  0
    5.6218   12.5437   26.5499 C   0  0  0  0  0  0  0  0  0  0  0  0
    6.2475   13.5662   25.8326 C   0  0  0  0  0  0  0  0  0  0  0  0
    7.2208   13.2899   24.8547 C   0  0  0  0  0  0  0  0  0  0  0  0
    7.8610   14.4699   24.1254 C   0  0  0  0  0  0  0  0  0  0  0  0
    7.9809   14.3679   22.5893 C   0  0  0  0  0  0  0  0  0  0  0  0
    7.1995   13.8115   21.8955 O   0  0  0  0  0  0  0  0  0  0  0  0
    9.2450   15.1611   22.2241 N   0  0  0  0  0  0  0  0  0  0  0  0
   10.5015   14.2412   22.1774 C   0  0  0  0  0  0  0  0  0  0  0  0
   11.2142   15.2728   21.3515 C   0  0  0  0  0  0  0  0  0  0  0  0
   12.1628   14.7940   20.3758 O   0  0  0  0  0  0  0  0  0  0  0  0
    9.8091   15.5508   20.8732 C   0  0  0  0  0  0  0  0  0  0  0  0
  2  1  1  1
  2  3  1  0
  2  4  1  0
  4  5  1  0
  5  6  1  0
  6  7  2  0
  7  8  1  0
  8  9  2  0
  9 10  1  0
 10 11  2  0
 11 12  1  0
 12 13  1  0
 13 14  2  0
 13 15  1  0
 15 16  1  0
 16 17  1  0
 17 18  1  0
 17 19  1  0
 11  6  1  0
 19 15  1  0
M  END
>  <alias>  (15) 
None

>  <rmsd(smina/fragmenstein)>  (15) 
0.337

>  <smiles>  (15) 
C[C@H](N)CSc1ccccc1CC(=O)N1CC(O)C1

>  <gnina_score>  (15) 
5.248

>  <inspiration_score>  (15) 
None

>  <energy_score>  (15) 
-11.238112

>  <distance_score>  (15) 
1.060694

>  <gnina_score_min>  (15) 
5.227

>  <inchikey>  (15) 
USOHUAKCLJSUAZ-JTQLQIEISA-N

>  <exports>  (15) 
['/opt/xchem-fragalysis-2/maxwin/BulkDock/OUTPUTS/openbind_a71ev2a_c2_elabs_1LOUU54.sdf', '/opt/xchem-fragalysis-2/maxwin/BulkDock/OUTPUTS/openbind_a71ev2a_c2_elabs_1LSYIDY.sdf']

>  <name>  (15) 
P534815

>  <ref_pdb>  (15) 
A4715a

>  <subsites>  (15) 
None

>  <HIPPO Pose ID>  (15) 
534815

>  <ref_mols>  (15) 
A4715a

>  <HIPPO Compound ID>  (15) 
324527

>  <tags>  (15) 
openbind_a71ev2a_c2_elabs,syndirella_product,openbind_a71ev2a_c2_elabs_scored,BulkDock Fragalysis export,openbind_a71ev2a_c2_elabs_scored_top80percent,openbind_a71ev2a_c2_elabs_scored_top80percent_despaghettified,syndirella_placed

>  <smina_score_min>  (15) 
-4.05

$$$$
P534817
     RDKit          3D

 20 21  0  0  0  0  0  0  0  0999 V2000
    8.7340    7.6990   22.1350 C   0  0  0  0  0  0  0  0  0  0  0  0
    9.7252    8.5401   22.8721 C   0  0  0  0  0  0  0  0  0  0  0  0
    9.1963    8.7911   24.1767 N   0  0  0  0  0  0  0  0  0  0  0  0
    8.0532    9.6573   24.2135 C   0  0  0  0  0  0  0  0  0  0  0  0
    8.2915   10.9995   23.5744 C   0  0  0  0  0  0  0  0  0  0  0  0
    8.9681   12.1654   24.7368 S   0  0  0  0  0  0  0  0  0  0  0  0
    7.3993   12.7195   25.3350 C   0  0  0  0  0  0  0  0  0  0  0  0
    6.6588   11.9013   26.2064 C   0  0  0  0  0  0  0  0  0  0  0  0
    5.3919   12.2638   26.6280 C   0  0  0  0  0  0  0  0  0  0  0  0
    4.8645   13.4636   26.1822 C   0  0  0  0  0  0  0  0  0  0  0  0
    5.6004   14.2873   25.3212 C   0  0  0  0  0  0  0  0  0  0  0  0
    6.8774   13.9270   24.8745 C   0  0  0  0  0  0  0  0  0  0  0  0
    7.6605   14.8724   23.9801 C   0  0  0  0  0  0  0  0  0  0  0  0
    7.9527   14.4152   22.5388 C   0  0  0  0  0  0  0  0  0  0  0  0
    7.1938   13.7828   21.8845 O   0  0  0  0  0  0  0  0  0  0  0  0
    9.3141   15.0312   22.1668 N   0  0  0  0  0  0  0  0  0  0  0  0
   10.0367   15.0986   20.8347 C   0  0  0  0  0  0  0  0  0  0  0  0
   11.3397   14.6000   21.3651 C   0  0  0  0  0  0  0  0  0  0  0  0
   12.3741   15.5160   21.7513 O   0  0  0  0  0  0  0  0  0  0  0  0
   10.4896   14.0310   22.4426 C   0  0  0  0  0  0  0  0  0  0  0  0
  1  2  1  0
  2  3  1  0
  3  4  1  0
  4  5  1  0
  5  6  1  0
  6  7  1  0
  7  8  2  0
  8  9  1  0
  9 10  2  0
 10 11  1  0
 11 12  2  0
 12 13  1  0
 13 14  1  0
 14 15  2  0
 14 16  1  0
 16 17  1  0
 17 18  1  0
 18 19  1  0
 18 20  1  0
 12  7  1  0
 20 16  1  0
M  END
>  <alias>  (16) 
None

>  <rmsd(smina/fragmenstein)>  (16) 
2.341

>  <smiles>  (16) 
CCNCCSc1ccccc1CC(=O)N1CC(O)C1

>  <gnina_score>  (16) 
4.977

>  <inspiration_score>  (16) 
None

>  <energy_score>  (16) 
-10.776576

>  <distance_score>  (16) 
1.750322

>  <gnina_score_min>  (16) 
4.352

>  <inchikey>  (16) 
QRHVODMBAUBQBG-UHFFFAOYSA-N

>  <exports>  (16) 
['/opt/xchem-fragalysis-2/maxwin/BulkDock/OUTPUTS/openbind_a71ev2a_c2_elabs_1LOUU54.sdf', '/opt/xchem-fragalysis-2/maxwin/BulkDock/OUTPUTS/openbind_a71ev2a_c2_elabs_1LSYIDY.sdf']

>  <name>  (16) 
P534817

>  <ref_pdb>  (16) 
A4715a

>  <subsites>  (16) 
None

>  <HIPPO Pose ID>  (16) 
534817

>  <ref_mols>  (16) 
A4715a

>  <HIPPO Compound ID>  (16) 
324531

>  <tags>  (16) 
openbind_a71ev2a_c2_elabs,syndirella_product,openbind_a71ev2a_c2_elabs_scored,BulkDock Fragalysis export,openbind_a71ev2a_c2_elabs_scored_top80percent,openbind_a71ev2a_c2_elabs_scored_top80percent_despaghettified,syndirella_placed

>  <smina_score_min>  (16) 
-5.646

$$$$
P534819
     RDKit          3D

 20 22  0  0  0  0  0  0  0  0999 V2000
    7.0697   13.5285   21.9930 O   0  0  0  0  0  0  0  0  0  0  0  0
    7.7215   14.2885   22.6247 C   0  0  0  0  0  0  0  0  0  0  0  0
    7.3895   14.7098   24.0696 C   0  0  0  0  0  0  0  0  0  0  0  0
    6.7000   13.6656   24.9387 C   0  0  0  0  0  0  0  0  0  0  0  0
    5.4690   13.9762   25.5309 C   0  0  0  0  0  0  0  0  0  0  0  0
    4.8155   13.0738   26.3779 C   0  0  0  0  0  0  0  0  0  0  0  0
    5.3737   11.8350   26.6498 C   0  0  0  0  0  0  0  0  0  0  0  0
    6.5936   11.5135   26.0800 C   0  0  0  0  0  0  0  0  0  0  0  0
    7.2627   12.4225   25.2440 C   0  0  0  0  0  0  0  0  0  0  0  0
    8.8924   12.0453   24.7055 S   0  0  0  0  0  0  0  0  0  0  0  0
    8.5262   10.7206   23.5527 C   0  0  2  0  0  0  0  0  0  0  0  0
    8.1603    9.3836   24.1552 C   0  0  0  0  0  0  0  0  0  0  0  0
    9.1341    8.4155   23.5228 C   0  0  0  0  0  0  0  0  0  0  0  0
   10.3052    9.2407   23.3818 N   0  0  0  0  0  0  0  0  0  0  0  0
    9.7645   10.4386   22.7565 C   0  0  0  0  0  0  0  0  0  0  0  0
    8.9451   15.1216   22.2191 N   0  0  0  0  0  0  0  0  0  0  0  0
   10.2738   14.3457   22.4751 C   0  0  0  0  0  0  0  0  0  0  0  0
   10.9877   15.2213   21.4883 C   0  0  0  0  0  0  0  0  0  0  0  0
   12.0367   14.5997   20.7184 O   0  0  0  0  0  0  0  0  0  0  0  0
    9.6159   15.2956   20.8762 C   0  0  0  0  0  0  0  0  0  0  0  0
  1  2  2  0
  2  3  1  0
  3  4  1  0
  4  5  2  0
  5  6  1  0
  6  7  2  0
  7  8  1  0
  8  9  2  0
  9 10  1  0
 11 10  1  1
 11 12  1  0
 12 13  1  0
 13 14  1  0
 14 15  1  0
  2 16  1  0
 16 17  1  0
 17 18  1  0
 18 19  1  0
 18 20  1  0
  9  4  1  0
 15 11  1  0
 20 16  1  0
M  END
>  <alias>  (17) 
None

>  <rmsd(smina/fragmenstein)>  (17) 
1.152

>  <smiles>  (17) 
O=C(Cc1ccccc1S[C@@H]1CCNC1)N1CC(O)C1

>  <gnina_score>  (17) 
5.327

>  <inspiration_score>  (17) 
None

>  <energy_score>  (17) 
-2.4045

>  <distance_score>  (17) 
1.587124

>  <gnina_score_min>  (17) 
5.194

>  <inchikey>  (17) 
CLHZEVFTWXTKLT-CYBMUJFWSA-N

>  <exports>  (17) 
['/opt/xchem-fragalysis-2/maxwin/BulkDock/OUTPUTS/openbind_a71ev2a_c2_elabs_1LOUU54.sdf', '/opt/xchem-fragalysis-2/maxwin/BulkDock/OUTPUTS/openbind_a71ev2a_c2_elabs_1LSYIDY.sdf']

>  <name>  (17) 
P534819

>  <ref_pdb>  (17) 
A4715a

>  <subsites>  (17) 
None

>  <HIPPO Pose ID>  (17) 
534819

>  <ref_mols>  (17) 
A4715a

>  <HIPPO Compound ID>  (17) 
324534

>  <tags>  (17) 
openbind_a71ev2a_c2_elabs,syndirella_product,openbind_a71ev2a_c2_elabs_scored,BulkDock Fragalysis export,openbind_a71ev2a_c2_elabs_scored_top80percent,openbind_a71ev2a_c2_elabs_scored_top80percent_despaghettified,syndirella_placed

>  <smina_score_min>  (17) 
-5.945

$$$$
P534830
     RDKit          3D

 20 21  0  0  0  0  0  0  0  0999 V2000
    9.8251    7.1215   23.5044 O   0  0  0  0  0  0  0  0  0  0  0  0
   10.1103    8.2924   23.3811 C   0  0  0  0  0  0  0  0  0  0  0  0
   11.0789    8.8661   24.0679 O   0  0  0  0  0  0  0  0  0  0  0  0
    9.3520    9.2013   22.5491 C   0  0  0  0  0  0  0  0  0  0  0  0
    8.3755    9.7306   23.5553 C   0  0  0  0  0  0  0  0  0  0  0  0
    8.8635   11.3928   24.0416 S   0  0  0  0  0  0  0  0  0  0  0  0
    7.4640   11.8794   25.0216 C   0  0  0  0  0  0  0  0  0  0  0  0
    6.7833   10.9360   25.8136 C   0  0  0  0  0  0  0  0  0  0  0  0
    5.7395   11.3100   26.6507 C   0  0  0  0  0  0  0  0  0  0  0  0
    5.3598   12.6402   26.7057 C   0  0  0  0  0  0  0  0  0  0  0  0
    6.0200   13.5879   25.9217 C   0  0  0  0  0  0  0  0  0  0  0  0
    7.0732   13.2282   25.0623 C   0  0  0  0  0  0  0  0  0  0  0  0
    7.7640   14.3381   24.2840 C   0  0  0  0  0  0  0  0  0  0  0  0
    7.8905   14.1400   22.7669 C   0  0  0  0  0  0  0  0  0  0  0  0
    7.1219   13.5376   22.1003 O   0  0  0  0  0  0  0  0  0  0  0  0
    9.1447   14.9236   22.3688 N   0  0  0  0  0  0  0  0  0  0  0  0
   10.4131   14.0153   22.3834 C   0  0  0  0  0  0  0  0  0  0  0  0
   11.1177   14.9457   21.4466 C   0  0  0  0  0  0  0  0  0  0  0  0
   12.0113   14.3442   20.4861 O   0  0  0  0  0  0  0  0  0  0  0  0
    9.7155   15.2441   21.0024 C   0  0  0  0  0  0  0  0  0  0  0  0
  1  2  2  0
  2  3  1  0
  2  4  1  0
  4  5  1  0
  5  6  1  0
  6  7  1  0
  7  8  2  0
  8  9  1  0
  9 10  2  0
 10 11  1  0
 11 12  2  0
 12 13  1  0
 13 14  1  0
 14 15  2  0
 14 16  1  0
 16 17  1  0
 17 18  1  0
 18 19  1  0
 18 20  1  0
 12  7  1  0
 20 16  1  0
M  END
>  <alias>  (18) 
None

>  <rmsd(smina/fragmenstein)>  (18) 
2.246

>  <smiles>  (18) 
O=C(O)CCSc1ccccc1CC(=O)N1CC(O)C1

>  <gnina_score>  (18) 
5.077

>  <inspiration_score>  (18) 
None

>  <energy_score>  (18) 
-4.412111

>  <distance_score>  (18) 
1.096301

>  <gnina_score_min>  (18) 
4.106

>  <inchikey>  (18) 
JFTDEXLPONIGPB-UHFFFAOYSA-N

>  <exports>  (18) 
['/opt/xchem-fragalysis-2/maxwin/BulkDock/OUTPUTS/openbind_a71ev2a_c2_elabs_1LOUU54.sdf', '/opt/xchem-fragalysis-2/maxwin/BulkDock/OUTPUTS/openbind_a71ev2a_c2_elabs_1LSYIDY.sdf']

>  <name>  (18) 
P534830

>  <ref_pdb>  (18) 
A4715a

>  <subsites>  (18) 
None

>  <HIPPO Pose ID>  (18) 
534830

>  <ref_mols>  (18) 
A4715a

>  <HIPPO Compound ID>  (18) 
324560

>  <tags>  (18) 
openbind_a71ev2a_c2_elabs,syndirella_product,openbind_a71ev2a_c2_elabs_scored,BulkDock Fragalysis export,openbind_a71ev2a_c2_elabs_scored_top80percent,openbind_a71ev2a_c2_elabs_scored_top80percent_despaghettified,syndirella_placed

>  <smina_score_min>  (18) 
-6.281

$$$$
P534834
     RDKit          3D

 20 21  0  0  0  0  0  0  0  0999 V2000
    9.5622    9.6931   22.8395 C   0  0  0  0  0  0  0  0  0  0  0  0
    8.4472   10.4402   23.5369 C   0  0  2  0  0  0  0  0  0  0  0  0
    9.0667   11.8902   24.4091 S   0  0  0  0  0  0  0  0  0  0  0  0
    7.5755   12.5034   25.1550 C   0  0  0  0  0  0  0  0  0  0  0  0
    6.9683   11.7541   26.1756 C   0  0  0  0  0  0  0  0  0  0  0  0
    5.7732   12.1303   26.7721 C   0  0  0  0  0  0  0  0  0  0  0  0
    5.1927   13.3207   26.3852 C   0  0  0  0  0  0  0  0  0  0  0  0
    5.8256   14.1251   25.4346 C   0  0  0  0  0  0  0  0  0  0  0  0
    7.0275   13.7386   24.8135 C   0  0  0  0  0  0  0  0  0  0  0  0
    7.7205   14.7376   23.9139 C   0  0  0  0  0  0  0  0  0  0  0  0
    8.0083   14.3148   22.4769 C   0  0  0  0  0  0  0  0  0  0  0  0
    7.3215   13.5924   21.8396 O   0  0  0  0  0  0  0  0  0  0  0  0
    9.2650   15.0989   22.0755 N   0  0  0  0  0  0  0  0  0  0  0  0
    9.9350   15.2603   20.7347 C   0  0  0  0  0  0  0  0  0  0  0  0
   11.2984   15.1744   21.3712 C   0  0  0  0  0  0  0  0  0  0  0  0
   12.3459   14.5950   20.5686 O   0  0  0  0  0  0  0  0  0  0  0  0
   10.5622   14.2614   22.3152 C   0  0  0  0  0  0  0  0  0  0  0  0
    7.6847    9.4658   24.3630 C   0  0  0  0  0  0  0  0  0  0  0  0
    8.1359    8.4692   24.8848 O   0  0  0  0  0  0  0  0  0  0  0  0
    6.3984    9.7526   24.5915 O   0  0  0  0  0  0  0  0  0  0  0  0
  2  1  1  1
  2  3  1  0
  3  4  1  0
  4  5  2  0
  5  6  1  0
  6  7  2  0
  7  8  1  0
  8  9  2  0
  9 10  1  0
 10 11  1  0
 11 12  2  0
 11 13  1  0
 13 14  1  0
 14 15  1  0
 15 16  1  0
 15 17  1  0
  2 18  1  0
 18 19  2  0
 18 20  1  0
  9  4  1  0
 17 13  1  0
M  END
>  <alias>  (19) 
None

>  <rmsd(smina/fragmenstein)>  (19) 
1.542

>  <smiles>  (19) 
C[C@H](Sc1ccccc1CC(=O)N1CC(O)C1)C(=O)O

>  <gnina_score>  (19) 
5.03

>  <inspiration_score>  (19) 
None

>  <energy_score>  (19) 
-11.032716

>  <distance_score>  (19) 
1.492698

>  <gnina_score_min>  (19) 
4.479

>  <inchikey>  (19) 
BJRFFNXFJUCVAW-VIFPVBQESA-N

>  <exports>  (19) 
['/opt/xchem-fragalysis-2/maxwin/BulkDock/OUTPUTS/openbind_a71ev2a_c2_elabs_1LOUU54.sdf', '/opt/xchem-fragalysis-2/maxwin/BulkDock/OUTPUTS/openbind_a71ev2a_c2_elabs_1LSYIDY.sdf']

>  <name>  (19) 
P534834

>  <ref_pdb>  (19) 
A4715a

>  <subsites>  (19) 
None

>  <HIPPO Pose ID>  (19) 
534834

>  <ref_mols>  (19) 
A4715a

>  <HIPPO Compound ID>  (19) 
324565

>  <tags>  (19) 
openbind_a71ev2a_c2_elabs,syndirella_product,openbind_a71ev2a_c2_elabs_scored,BulkDock Fragalysis export,openbind_a71ev2a_c2_elabs_scored_top80percent,openbind_a71ev2a_c2_elabs_scored_top80percent_despaghettified,syndirella_placed

>  <smina_score_min>  (19) 
-6.314

$$$$
P534838
     RDKit          3D

 20 21  0  0  0  0  0  0  0  0999 V2000
    7.4731    9.3135   23.9644 C   0  0  0  0  0  0  0  0  0  0  0  0
    8.8772    9.7461   24.1867 C   0  0  2  0  0  0  0  0  0  0  0  0
    9.0518   11.5619   24.0016 S   0  0  0  0  0  0  0  0  0  0  0  0
    7.7055   12.1988   25.0254 C   0  0  0  0  0  0  0  0  0  0  0  0
    7.0506   11.3981   25.9862 C   0  0  0  0  0  0  0  0  0  0  0  0
    5.9342   11.8266   26.6969 C   0  0  0  0  0  0  0  0  0  0  0  0
    5.4739   13.1106   26.5009 C   0  0  0  0  0  0  0  0  0  0  0  0
    6.1434   13.9514   25.6137 C   0  0  0  0  0  0  0  0  0  0  0  0
    7.2609   13.5189   24.8677 C   0  0  0  0  0  0  0  0  0  0  0  0
    7.9660   14.5608   24.0250 C   0  0  0  0  0  0  0  0  0  0  0  0
    8.1354   14.2786   22.5368 C   0  0  0  0  0  0  0  0  0  0  0  0
    7.3916   13.6396   21.8761 O   0  0  0  0  0  0  0  0  0  0  0  0
    9.3905   15.0642   22.1382 N   0  0  0  0  0  0  0  0  0  0  0  0
    9.9893   15.3375   20.7789 C   0  0  0  0  0  0  0  0  0  0  0  0
   11.3812   15.1545   21.3270 C   0  0  0  0  0  0  0  0  0  0  0  0
   12.3725   14.6262   20.4236 O   0  0  0  0  0  0  0  0  0  0  0  0
   10.6695   14.1758   22.2197 C   0  0  0  0  0  0  0  0  0  0  0  0
    9.7754    8.7946   23.4071 C   0  0  1  0  0  0  0  0  0  0  0  0
    9.8297    9.1850   21.9705 C   0  0  0  0  0  0  0  0  0  0  0  0
   11.0630    8.6223   23.9419 O   0  0  0  0  0  0  0  0  0  0  0  0
  2  1  1  6
  2  3  1  0
  3  4  1  0
  4  5  2  0
  5  6  1  0
  6  7  2  0
  7  8  1  0
  8  9  2  0
  9 10  1  0
 10 11  1  0
 11 12  2  0
 11 13  1  0
 13 14  1  0
 14 15  1  0
 15 16  1  0
 15 17  1  0
  2 18  1  0
 18 19  1  6
 18 20  1  0
  9  4  1  0
 17 13  1  0
M  END
>  <alias>  (20) 
None

>  <rmsd(smina/fragmenstein)>  (20) 
0.497

>  <smiles>  (20) 
C[C@H](Sc1ccccc1CC(=O)N1CC(O)C1)[C@@H](C)O

>  <gnina_score>  (20) 
5.357

>  <inspiration_score>  (20) 
None

>  <energy_score>  (20) 
-7.029407

>  <distance_score>  (20) 
1.224969

>  <gnina_score_min>  (20) 
5.249

>  <inchikey>  (20) 
UKJXTNFQZDMLAG-MNOVXSKESA-N

>  <exports>  (20) 
['/opt/xchem-fragalysis-2/maxwin/BulkDock/OUTPUTS/openbind_a71ev2a_c2_elabs_1LOUU54.sdf', '/opt/xchem-fragalysis-2/maxwin/BulkDock/OUTPUTS/openbind_a71ev2a_c2_elabs_1LSYIDY.sdf']

>  <name>  (20) 
P534838

>  <ref_pdb>  (20) 
A4715a

>  <subsites>  (20) 
None

>  <HIPPO Pose ID>  (20) 
534838

>  <ref_mols>  (20) 
A4715a

>  <HIPPO Compound ID>  (20) 
324576

>  <tags>  (20) 
openbind_a71ev2a_c2_elabs,syndirella_product,openbind_a71ev2a_c2_elabs_scored,BulkDock Fragalysis export,openbind_a71ev2a_c2_elabs_scored_top80percent,openbind_a71ev2a_c2_elabs_scored_top80percent_despaghettified,syndirella_placed

>  <smina_score_min>  (20) 
-4.24

$$$$
P534854
     RDKit          3D

 21 22  0  0  0  0  0  0  0  0999 V2000
    7.6052    9.4283   24.0935 C   0  0  0  0  0  0  0  0  0  0  0  0
    8.4694   10.4577   23.4156 C   0  0  2  0  0  0  0  0  0  0  0  0
    9.5589    9.8030   22.6027 C   0  0  0  0  0  0  0  0  0  0  0  0
   10.0963    8.6584   23.3577 C   0  0  0  0  0  0  0  0  0  0  0  0
    9.6932    7.5133   23.3232 O   0  0  0  0  0  0  0  0  0  0  0  0
   11.0480    9.0067   24.1961 O   0  0  0  0  0  0  0  0  0  0  0  0
    9.0525   11.8115   24.4517 S   0  0  0  0  0  0  0  0  0  0  0  0
    7.5247   12.3536   25.1706 C   0  0  0  0  0  0  0  0  0  0  0  0
    6.8681   11.5180   26.0916 C   0  0  0  0  0  0  0  0  0  0  0  0
    5.6716   11.8810   26.6906 C   0  0  0  0  0  0  0  0  0  0  0  0
    5.1364   13.1221   26.4006 C   0  0  0  0  0  0  0  0  0  0  0  0
    5.8014   13.9852   25.5248 C   0  0  0  0  0  0  0  0  0  0  0  0
    7.0036   13.6197   24.8959 C   0  0  0  0  0  0  0  0  0  0  0  0
    7.7130   14.6477   24.0350 C   0  0  0  0  0  0  0  0  0  0  0  0
    7.9837   14.2632   22.5772 C   0  0  0  0  0  0  0  0  0  0  0  0
    7.2871   13.5555   21.9333 O   0  0  0  0  0  0  0  0  0  0  0  0
    9.2321   15.0589   22.1747 N   0  0  0  0  0  0  0  0  0  0  0  0
   10.5339   14.2182   22.3717 C   0  0  0  0  0  0  0  0  0  0  0  0
   11.2556   15.1501   21.4343 C   0  0  0  0  0  0  0  0  0  0  0  0
   12.2891   14.5826   20.6046 O   0  0  0  0  0  0  0  0  0  0  0  0
    9.8805   15.2552   20.8252 C   0  0  0  0  0  0  0  0  0  0  0  0
  2  1  1  1
  2  3  1  0
  3  4  1  0
  4  5  2  0
  4  6  1  0
  2  7  1  0
  7  8  1  0
  8  9  2  0
  9 10  1  0
 10 11  2  0
 11 12  1  0
 12 13  2  0
 13 14  1  0
 14 15  1  0
 15 16  2  0
 15 17  1  0
 17 18  1  0
 18 19  1  0
 19 20  1  0
 19 21  1  0
 13  8  1  0
 21 17  1  0
M  END
>  <alias>  (21) 
None

>  <rmsd(smina/fragmenstein)>  (21) 
1.882

>  <smiles>  (21) 
C[C@H](CC(=O)O)Sc1ccccc1CC(=O)N1CC(O)C1

>  <gnina_score>  (21) 
5.206

>  <inspiration_score>  (21) 
None

>  <energy_score>  (21) 
-12.106572

>  <distance_score>  (21) 
1.403937

>  <gnina_score_min>  (21) 
4.391

>  <inchikey>  (21) 
DIDWPQMHQPJFHE-SNVBAGLBSA-N

>  <exports>  (21) 
['/opt/xchem-fragalysis-2/maxwin/BulkDock/OUTPUTS/openbind_a71ev2a_c2_elabs_1LOUU54.sdf', '/opt/xchem-fragalysis-2/maxwin/BulkDock/OUTPUTS/openbind_a71ev2a_c2_elabs_1LSYIDY.sdf']

>  <name>  (21) 
P534854

>  <ref_pdb>  (21) 
A4715a

>  <subsites>  (21) 
None

>  <HIPPO Pose ID>  (21) 
534854

>  <ref_mols>  (21) 
A4715a

>  <HIPPO Compound ID>  (21) 
324618

>  <tags>  (21) 
openbind_a71ev2a_c2_elabs,syndirella_product,openbind_a71ev2a_c2_elabs_scored,BulkDock Fragalysis export,openbind_a71ev2a_c2_elabs_scored_top80percent,openbind_a71ev2a_c2_elabs_scored_top80percent_despaghettified,syndirella_placed

>  <smina_score_min>  (21) 
-6.645

$$$$
P534855
     RDKit          3D

 21 22  0  0  0  0  0  0  0  0999 V2000
    9.5766    7.4973   23.7673 O   0  0  0  0  0  0  0  0  0  0  0  0
    9.1436    7.9095   22.7090 C   0  0  0  0  0  0  0  0  0  0  0  0
    8.1426    7.3529   22.0305 O   0  0  0  0  0  0  0  0  0  0  0  0
    9.7613    9.0484   22.0455 C   0  0  0  0  0  0  0  0  0  0  0  0
    9.2630   10.3221   22.6120 C   0  0  0  0  0  0  0  0  0  0  0  0
    9.5525   10.3871   24.0502 C   0  0  0  0  0  0  0  0  0  0  0  0
    9.3358   12.1357   24.4410 S   0  0  0  0  0  0  0  0  0  0  0  0
    7.6523   12.2369   24.9830 C   0  0  0  0  0  0  0  0  0  0  0  0
    7.0357   11.2084   25.7154 C   0  0  0  0  0  0  0  0  0  0  0  0
    5.8178   11.4117   26.3523 C   0  0  0  0  0  0  0  0  0  0  0  0
    5.2019   12.6495   26.2546 C   0  0  0  0  0  0  0  0  0  0  0  0
    5.7808   13.6632   25.4858 C   0  0  0  0  0  0  0  0  0  0  0  0
    7.0007   13.4697   24.8203 C   0  0  0  0  0  0  0  0  0  0  0  0
    7.5901   14.6191   24.0068 C   0  0  0  0  0  0  0  0  0  0  0  0
    7.8858   14.3055   22.5249 C   0  0  0  0  0  0  0  0  0  0  0  0
    7.2126   13.5880   21.8648 O   0  0  0  0  0  0  0  0  0  0  0  0
    9.0976   15.1682   22.1351 N   0  0  0  0  0  0  0  0  0  0  0  0
   10.4367   14.3781   22.2938 C   0  0  0  0  0  0  0  0  0  0  0  0
   11.1160   15.3173   21.3442 C   0  0  0  0  0  0  0  0  0  0  0  0
   12.1275   14.7637   20.4759 O   0  0  0  0  0  0  0  0  0  0  0  0
    9.7235   15.4340   20.7845 C   0  0  0  0  0  0  0  0  0  0  0  0
  1  2  2  0
  2  3  1  0
  2  4  1  0
  4  5  1  0
  5  6  1  0
  6  7  1  0
  7  8  1  0
  8  9  2  0
  9 10  1  0
 10 11  2  0
 11 12  1  0
 12 13  2  0
 13 14  1  0
 14 15  1  0
 15 16  2  0
 15 17  1  0
 17 18  1  0
 18 19  1  0
 19 20  1  0
 19 21  1  0
 13  8  1  0
 21 17  1  0
M  END
>  <alias>  (22) 
None

>  <rmsd(smina/fragmenstein)>  (22) 
2.397

>  <smiles>  (22) 
O=C(O)CCCSc1ccccc1CC(=O)N1CC(O)C1

>  <gnina_score>  (22) 
5.223

>  <inspiration_score>  (22) 
None

>  <energy_score>  (22) 
-8.68871

>  <distance_score>  (22) 
1.327524

>  <gnina_score_min>  (22) 
4.096

>  <inchikey>  (22) 
MOWAMWKYKOICRO-UHFFFAOYSA-N

>  <exports>  (22) 
['/opt/xchem-fragalysis-2/maxwin/BulkDock/OUTPUTS/openbind_a71ev2a_c2_elabs_1LOUU54.sdf', '/opt/xchem-fragalysis-2/maxwin/BulkDock/OUTPUTS/openbind_a71ev2a_c2_elabs_1LSYIDY.sdf']

>  <name>  (22) 
P534855

>  <ref_pdb>  (22) 
A4715a

>  <subsites>  (22) 
None

>  <HIPPO Pose ID>  (22) 
534855

>  <ref_mols>  (22) 
A4715a

>  <HIPPO Compound ID>  (22) 
324619

>  <tags>  (22) 
openbind_a71ev2a_c2_elabs,syndirella_product,openbind_a71ev2a_c2_elabs_scored,BulkDock Fragalysis export,openbind_a71ev2a_c2_elabs_scored_top80percent,openbind_a71ev2a_c2_elabs_scored_top80percent_despaghettified,syndirella_placed

>  <smina_score_min>  (22) 
-5.903

$$$$
P534859
     RDKit          3D

 21 23  0  0  0  0  0  0  0  0999 V2000
    8.0128    7.6998   22.1620 N   0  0  0  0  0  0  0  0  0  0  0  0
    8.6487    8.6884   23.0088 C   0  0  0  0  0  0  0  0  0  0  0  0
    7.8707    9.4689   24.0351 C   0  0  0  0  0  0  0  0  0  0  0  0
    8.4869   11.1449   24.3091 S   0  0  0  0  0  0  0  0  0  0  0  0
    7.1859   11.8546   25.2747 C   0  0  0  0  0  0  0  0  0  0  0  0
    6.3992   11.0453   26.1134 C   0  0  0  0  0  0  0  0  0  0  0  0
    5.4171   11.5891   26.9285 C   0  0  0  0  0  0  0  0  0  0  0  0
    5.2029   12.9558   26.9094 C   0  0  0  0  0  0  0  0  0  0  0  0
    5.9749   13.7737   26.0844 C   0  0  0  0  0  0  0  0  0  0  0  0
    6.9764   13.2440   25.2540 C   0  0  0  0  0  0  0  0  0  0  0  0
    7.8179   14.2258   24.4553 C   0  0  0  0  0  0  0  0  0  0  0  0
    7.9030   14.0174   22.9383 C   0  0  0  0  0  0  0  0  0  0  0  0
    7.1146   13.4299   22.2836 O   0  0  0  0  0  0  0  0  0  0  0  0
    9.1561   14.7891   22.5208 N   0  0  0  0  0  0  0  0  0  0  0  0
    9.7022   15.1145   21.1454 C   0  0  0  0  0  0  0  0  0  0  0  0
   11.1106   14.8207   21.5756 C   0  0  0  0  0  0  0  0  0  0  0  0
   12.0029   14.2479   20.5960 O   0  0  0  0  0  0  0  0  0  0  0  0
   10.4137   13.8667   22.5017 C   0  0  0  0  0  0  0  0  0  0  0  0
    9.8239    9.3323   22.2944 C   0  0  0  0  0  0  0  0  0  0  0  0
   10.6896    8.7267   23.4061 C   0  0  0  0  0  0  0  0  0  0  0  0
    9.6125    7.7532   23.6820 C   0  0  0  0  0  0  0  0  0  0  0  0
  1  2  1  0
  2  3  1  0
  3  4  1  0
  4  5  1  0
  5  6  2  0
  6  7  1  0
  7  8  2  0
  8  9  1  0
  9 10  2  0
 10 11  1  0
 11 12  1  0
 12 13  2  0
 12 14  1  0
 14 15  1  0
 15 16  1  0
 16 17  1  0
 16 18  1  0
  2 19  1  0
 19 20  1  0
 20 21  1  0
 21  2  1  0
 10  5  1  0
 18 14  1  0
M  END
>  <alias>  (23) 
None

>  <rmsd(smina/fragmenstein)>  (23) 
0.448

>  <smiles>  (23) 
NC1(CSc2ccccc2CC(=O)N2CC(O)C2)CCC1

>  <gnina_score>  (23) 
5.667

>  <inspiration_score>  (23) 
None

>  <energy_score>  (23) 
-10.286716

>  <distance_score>  (23) 
1.262086

>  <gnina_score_min>  (23) 
5.624

>  <inchikey>  (23) 
SDESUISBJUOFDP-UHFFFAOYSA-N

>  <exports>  (23) 
['/opt/xchem-fragalysis-2/maxwin/BulkDock/OUTPUTS/openbind_a71ev2a_c2_elabs_1LOUU54.sdf', '/opt/xchem-fragalysis-2/maxwin/BulkDock/OUTPUTS/openbind_a71ev2a_c2_elabs_1LSYIDY.sdf']

>  <name>  (23) 
P534859

>  <ref_pdb>  (23) 
A4715a

>  <subsites>  (23) 
None

>  <HIPPO Pose ID>  (23) 
534859

>  <ref_mols>  (23) 
A4715a

>  <HIPPO Compound ID>  (23) 
324647

>  <tags>  (23) 
openbind_a71ev2a_c2_elabs,syndirella_product,openbind_a71ev2a_c2_elabs_scored,BulkDock Fragalysis export,openbind_a71ev2a_c2_elabs_scored_top80percent,openbind_a71ev2a_c2_elabs_scored_top80percent_despaghettified,syndirella_placed

>  <smina_score_min>  (23) 
-1.977

$$$$
P534876
     RDKit          3D

 21 22  0  0  0  0  0  0  0  0999 V2000
    8.6084    7.7909   22.1682 C   0  0  0  0  0  0  0  0  0  0  0  0
    9.1564    9.0370   22.7990 C   0  0  1  0  0  0  0  0  0  0  0  0
    8.2296    9.6020   23.8370 C   0  0  0  0  0  0  0  0  0  0  0  0
    8.5739   11.3719   24.0099 S   0  0  0  0  0  0  0  0  0  0  0  0
    7.2706   11.9210   25.0652 C   0  0  0  0  0  0  0  0  0  0  0  0
    6.5803   11.0224   25.8988 C   0  0  0  0  0  0  0  0  0  0  0  0
    5.6062   11.4638   26.7841 C   0  0  0  0  0  0  0  0  0  0  0  0
    5.3075   12.8146   26.8424 C   0  0  0  0  0  0  0  0  0  0  0  0
    5.9804   13.7177   26.0170 C   0  0  0  0  0  0  0  0  0  0  0  0
    6.9644   13.2926   25.1082 C   0  0  0  0  0  0  0  0  0  0  0  0
    7.6949   14.3641   24.3049 C   0  0  0  0  0  0  0  0  0  0  0  0
    7.8470   14.1539   22.7880 C   0  0  0  0  0  0  0  0  0  0  0  0
    7.0817   13.5618   22.1077 O   0  0  0  0  0  0  0  0  0  0  0  0
    9.1131   14.9327   22.4098 N   0  0  0  0  0  0  0  0  0  0  0  0
   10.3773   14.0141   22.4317 C   0  0  0  0  0  0  0  0  0  0  0  0
   11.0963   15.0264   21.5783 C   0  0  0  0  0  0  0  0  0  0  0  0
   12.0887   14.5215   20.6636 O   0  0  0  0  0  0  0  0  0  0  0  0
    9.7006   15.2585   21.0556 C   0  0  0  0  0  0  0  0  0  0  0  0
   10.3809    8.6852   23.5220 C   0  0  0  0  0  0  0  0  0  0  0  0
   10.8856    7.5989   23.6525 O   0  0  0  0  0  0  0  0  0  0  0  0
   10.9308    9.7211   24.1238 O   0  0  0  0  0  0  0  0  0  0  0  0
  2  1  1  1
  2  3  1  0
  3  4  1  0
  4  5  1  0
  5  6  2  0
  6  7  1  0
  7  8  2  0
  8  9  1  0
  9 10  2  0
 10 11  1  0
 11 12  1  0
 12 13  2  0
 12 14  1  0
 14 15  1  0
 15 16  1  0
 16 17  1  0
 16 18  1  0
  2 19  1  0
 19 20  2  0
 19 21  1  0
 10  5  1  0
 18 14  1  0
M  END
>  <alias>  (24) 
None

>  <rmsd(smina/fragmenstein)>  (24) 
0.501

>  <smiles>  (24) 
C[C@@H](CSc1ccccc1CC(=O)N1CC(O)C1)C(=O)O

>  <gnina_score>  (24) 
5.205

>  <inspiration_score>  (24) 
None

>  <energy_score>  (24) 
-3.465879

>  <distance_score>  (24) 
1.203324

>  <gnina_score_min>  (24) 
5.204

>  <inchikey>  (24) 
JGXILDVPAGGGAS-JTQLQIEISA-N

>  <exports>  (24) 
['/opt/xchem-fragalysis-2/maxwin/BulkDock/OUTPUTS/openbind_a71ev2a_c2_elabs_1LOUU54.sdf', '/opt/xchem-fragalysis-2/maxwin/BulkDock/OUTPUTS/openbind_a71ev2a_c2_elabs_1LSYIDY.sdf']

>  <name>  (24) 
P534876

>  <ref_pdb>  (24) 
A4715a

>  <subsites>  (24) 
None

>  <HIPPO Pose ID>  (24) 
534876

>  <ref_mols>  (24) 
A4715a

>  <HIPPO Compound ID>  (24) 
324694

>  <tags>  (24) 
openbind_a71ev2a_c2_elabs,syndirella_product,openbind_a71ev2a_c2_elabs_scored,BulkDock Fragalysis export,openbind_a71ev2a_c2_elabs_scored_top80percent,openbind_a71ev2a_c2_elabs_scored_top80percent_despaghettified,syndirella_placed

>  <smina_score_min>  (24) 
-1.904

$$$$
P534890
     RDKit          3D

 22 24  0  0  0  0  0  0  0  0999 V2000
    7.0883   13.9145   22.2997 O   0  0  0  0  0  0  0  0  0  0  0  0
    7.9531   14.3574   22.9748 C   0  0  0  0  0  0  0  0  0  0  0  0
    7.9933   14.4946   24.5111 C   0  0  0  0  0  0  0  0  0  0  0  0
    7.1065   13.5151   25.2924 C   0  0  0  0  0  0  0  0  0  0  0  0
    6.1469   14.0339   26.1799 C   0  0  0  0  0  0  0  0  0  0  0  0
    5.3093   13.1875   26.9182 C   0  0  0  0  0  0  0  0  0  0  0  0
    5.4070   11.8080   26.8082 C   0  0  0  0  0  0  0  0  0  0  0  0
    6.3685   11.2726   25.9641 C   0  0  0  0  0  0  0  0  0  0  0  0
    7.2265   12.1056   25.2262 C   0  0  0  0  0  0  0  0  0  0  0  0
    8.5552   11.4588   24.2838 S   0  0  0  0  0  0  0  0  0  0  0  0
    8.2013    9.7226   24.2028 C   0  0  0  0  0  0  0  0  0  0  0  0
    9.1728    9.0277   23.3389 C   0  0  0  0  0  0  0  0  0  0  0  0
   10.4527    8.6574   23.7864 C   0  0  0  0  0  0  0  0  0  0  0  0
   10.8818    7.5433   23.8040 O   0  0  0  0  0  0  0  0  0  0  0  0
   11.0647    9.7374   24.2118 O   0  0  0  0  0  0  0  0  0  0  0  0
    8.5381    8.2048   22.3069 C   0  0  0  0  0  0  0  0  0  0  0  0
    9.3365    9.4367   21.9239 C   0  0  0  0  0  0  0  0  0  0  0  0
    9.3712   14.8542   22.5882 N   0  0  0  0  0  0  0  0  0  0  0  0
   10.4294   13.6872   22.6550 C   0  0  0  0  0  0  0  0  0  0  0  0
   11.3252   14.4108   21.6726 C   0  0  0  0  0  0  0  0  0  0  0  0
   12.3438   15.2690   22.2149 O   0  0  0  0  0  0  0  0  0  0  0  0
   10.0463   15.0170   21.1826 C   0  0  0  0  0  0  0  0  0  0  0  0
  1  2  2  0
  2  3  1  0
  3  4  1  0
  4  5  2  0
  5  6  1  0
  6  7  2  0
  7  8  1  0
  8  9  2  0
  9 10  1  0
 10 11  1  0
 11 12  1  0
 12 13  1  0
 13 14  2  0
 13 15  1  0
 12 16  1  0
 16 17  1  0
  2 18  1  0
 18 19  1  0
 19 20  1  0
 20 21  1  0
 20 22  1  0
  9  4  1  0
 17 12  1  0
 22 18  1  0
M  END
>  <alias>  (25) 
None

>  <rmsd(smina/fragmenstein)>  (25) 
2.774

>  <smiles>  (25) 
O=C(Cc1ccccc1SCC1(C(=O)O)CC1)N1CC(O)C1

>  <gnina_score>  (25) 
5.126

>  <inspiration_score>  (25) 
None

>  <energy_score>  (25) 
-1.107932

>  <distance_score>  (25) 
1.413662

>  <gnina_score_min>  (25) 
4.506

>  <inchikey>  (25) 
KUHRETMOYOXCGO-UHFFFAOYSA-N

>  <exports>  (25) 
['/opt/xchem-fragalysis-2/maxwin/BulkDock/OUTPUTS/openbind_a71ev2a_c2_elabs_1LOUU54.sdf', '/opt/xchem-fragalysis-2/maxwin/BulkDock/OUTPUTS/openbind_a71ev2a_c2_elabs_1LSYIDY.sdf']

>  <name>  (25) 
P534890

>  <ref_pdb>  (25) 
A4715a

>  <subsites>  (25) 
None

>  <HIPPO Pose ID>  (25) 
534890

>  <ref_mols>  (25) 
A4715a

>  <HIPPO Compound ID>  (25) 
324772

>  <tags>  (25) 
openbind_a71ev2a_c2_elabs,syndirella_product,openbind_a71ev2a_c2_elabs_scored,BulkDock Fragalysis export,openbind_a71ev2a_c2_elabs_scored_top80percent,openbind_a71ev2a_c2_elabs_scored_top80percent_despaghettified,syndirella_placed

>  <smina_score_min>  (25) 
-6.133

$$$$
P534900
     RDKit          3D

 22 23  0  0  0  0  0  0  0  0999 V2000
   11.9127   13.0107   24.1919 C   0  0  0  0  0  0  0  0  0  0  0  0
   11.2105   11.7757   24.3557 O   0  0  0  0  0  0  0  0  0  0  0  0
   10.3253   11.3189   23.4300 C   0  0  0  0  0  0  0  0  0  0  0  0
    9.9598   11.9828   22.4830 O   0  0  0  0  0  0  0  0  0  0  0  0
    9.9225    9.8264   23.6661 C   0  0  2  0  0  0  0  0  0  0  0  0
    9.8172    9.0790   22.3993 N   0  0  0  0  0  0  0  0  0  0  0  0
    8.6236    9.7257   24.4251 C   0  0  0  0  0  0  0  0  0  0  0  0
    7.5413   10.9710   23.7975 S   0  0  0  0  0  0  0  0  0  0  0  0
    6.9766   11.8498   25.1869 C   0  0  0  0  0  0  0  0  0  0  0  0
    6.2627   11.1102   26.1435 C   0  0  0  0  0  0  0  0  0  0  0  0
    5.6490   11.7500   27.2047 C   0  0  0  0  0  0  0  0  0  0  0  0
    5.7446   13.1312   27.3037 C   0  0  0  0  0  0  0  0  0  0  0  0
    6.4561   13.8700   26.3495 C   0  0  0  0  0  0  0  0  0  0  0  0
    7.0870   13.2498   25.2598 C   0  0  0  0  0  0  0  0  0  0  0  0
    7.9343   14.1217   24.3268 C   0  0  0  0  0  0  0  0  0  0  0  0
    7.6616   14.2030   22.8052 C   0  0  0  0  0  0  0  0  0  0  0  0
    6.8435   13.5804   22.2208 O   0  0  0  0  0  0  0  0  0  0  0  0
    8.6875   15.2342   22.2885 N   0  0  0  0  0  0  0  0  0  0  0  0
    9.9996   14.5663   21.8945 C   0  0  0  0  0  0  0  0  0  0  0  0
   10.3815   15.7094   21.0280 C   0  0  0  0  0  0  0  0  0  0  0  0
   11.1804   15.3645   19.8732 O   0  0  0  0  0  0  0  0  0  0  0  0
    8.8808   15.8227   20.9118 C   0  0  0  0  0  0  0  0  0  0  0  0
  1  2  1  0
  2  3  1  0
  3  4  2  0
  3  5  1  0
  5  6  1  6
  5  7  1  0
  7  8  1  0
  8  9  1  0
  9 10  2  0
 10 11  1  0
 11 12  2  0
 12 13  1  0
 13 14  2  0
 14 15  1  0
 15 16  1  0
 16 17  2  0
 16 18  1  0
 18 19  1  0
 19 20  1  0
 20 21  1  0
 20 22  1  0
 14  9  1  0
 22 18  1  0
M  END
>  <alias>  (26) 
None

>  <rmsd(smina/fragmenstein)>  (26) 
1.409

>  <smiles>  (26) 
COC(=O)[C@H](N)CSc1ccccc1CC(=O)N1CC(O)C1

>  <gnina_score>  (26) 
5.275

>  <inspiration_score>  (26) 
None

>  <energy_score>  (26) 
-0.00847

>  <distance_score>  (26) 
1.545058

>  <gnina_score_min>  (26) 
4.996

>  <inchikey>  (26) 
QSTDBZBTGYNKRO-GFCCVEGCSA-N

>  <exports>  (26) 
['/opt/xchem-fragalysis-2/maxwin/BulkDock/OUTPUTS/openbind_a71ev2a_c2_elabs_1LOUU54.sdf', '/opt/xchem-fragalysis-2/maxwin/BulkDock/OUTPUTS/openbind_a71ev2a_c2_elabs_1LSYIDY.sdf']

>  <name>  (26) 
P534900

>  <ref_pdb>  (26) 
A4715a

>  <subsites>  (26) 
None

>  <HIPPO Pose ID>  (26) 
534900

>  <ref_mols>  (26) 
A4715a

>  <HIPPO Compound ID>  (26) 
324841

>  <tags>  (26) 
openbind_a71ev2a_c2_elabs,syndirella_product,openbind_a71ev2a_c2_elabs_scored,BulkDock Fragalysis export,openbind_a71ev2a_c2_elabs_scored_top80percent,openbind_a71ev2a_c2_elabs_scored_top80percent_despaghettified,syndirella_placed

>  <smina_score_min>  (26) 
-3.559

$$$$
P534914
     RDKit          3D

 27 30  0  0  0  0  0  0  0  0999 V2000
    7.9181   13.6581   22.4844 O   0  0  0  0  0  0  0  0  0  0  0  0
    7.7608   14.5133   23.3209 C   0  0  0  0  0  0  0  0  0  0  0  0
    7.1582   14.1199   24.7234 C   0  0  2  0  0  0  0  0  0  0  0  0
    7.5067   14.8772   25.8719 O   0  0  0  0  0  0  0  0  0  0  0  0
    6.4946   15.7886   26.2871 C   0  0  0  0  0  0  0  0  0  0  0  0
    5.4388   15.0711   27.1245 C   0  0  0  0  0  0  0  0  0  0  0  0
    6.0048   14.3908   28.3708 C   0  0  0  0  0  0  0  0  0  0  0  0
    4.7809   14.1519   29.2490 C   0  0  0  0  0  0  0  0  0  0  0  0
    3.7332   15.1753   28.8062 C   0  0  0  0  0  0  0  0  0  0  0  0
    4.3904   16.0080   27.7102 C   0  0  0  0  0  0  0  0  0  0  0  0
    7.6034   12.7043   25.0383 C   0  0  0  0  0  0  0  0  0  0  0  0
    8.9312   12.2987   24.7968 C   0  0  0  0  0  0  0  0  0  0  0  0
    9.2688   10.9603   24.7977 C   0  0  0  0  0  0  0  0  0  0  0  0
    8.2984   10.0370   25.1310 C   0  0  0  0  0  0  0  0  0  0  0  0
    7.0303   10.4452   25.5452 C   0  0  0  0  0  0  0  0  0  0  0  0
    6.6679   11.7753   25.4790 C   0  0  0  0  0  0  0  0  0  0  0  0
    8.1164   15.8892   23.3137 N   0  0  0  0  0  0  0  0  0  0  0  0
    9.5179   16.0789   23.9085 C   0  0  0  0  0  0  0  0  0  0  0  0
   10.7933   15.4638   23.3264 C   0  0  0  0  0  0  0  0  0  0  0  0
   11.1258   16.1999   22.0603 C   0  0  0  0  0  0  0  0  0  0  0  0
    9.8202   16.2292   21.2863 C   0  0  2  0  0  0  0  0  0  0  0  0
    9.6098   14.9131   20.5390 C   0  0  0  0  0  0  0  0  0  0  0  0
   10.5359   15.0340   19.3325 C   0  0  0  0  0  0  0  0  0  0  0  0
   10.5102   16.4320   19.0682 N   0  0  0  0  0  0  0  0  0  0  0  0
    9.9352   17.1424   20.1011 C   0  0  0  0  0  0  0  0  0  0  0  0
    9.6156   18.3138   20.0776 O   0  0  0  0  0  0  0  0  0  0  0  0
    8.6994   16.7492   22.2220 C   0  0  0  0  0  0  0  0  0  0  0  0
  1  2  2  0
  2  3  1  0
  3  4  1  1
  4  5  1  0
  5  6  1  0
  6  7  1  0
  7  8  1  0
  8  9  1  0
  9 10  1  0
  3 11  1  0
 11 12  2  0
 12 13  1  0
 13 14  2  0
 14 15  1  0
 15 16  2  0
  2 17  1  0
 17 18  1  0
 18 19  1  0
 19 20  1  0
 21 20  1  1
 21 22  1  0
 22 23  1  0
 23 24  1  0
 24 25  1  0
 25 26  2  0
 21 27  1  0
 10  6  1  0
 16 11  1  0
 27 17  1  0
 25 21  1  0
M  END
>  <alias>  (27) 
None

>  <rmsd(smina/fragmenstein)>  (27) 
1.696

>  <smiles>  (27) 
O=C([C@H](OCC1CCCC1)c1ccccc1)N1CCC[C@@]2(CCNC2=O)C1

>  <gnina_score>  (27) 
5.701

>  <inspiration_score>  (27) 
None

>  <energy_score>  (27) 
-1.584007

>  <distance_score>  (27) 
1.215571

>  <gnina_score_min>  (27) 
5.967

>  <inchikey>  (27) 
KLNGSDZCDGDWDD-DENIHFKCSA-N

>  <exports>  (27) 
['/opt/xchem-fragalysis-2/maxwin/BulkDock/OUTPUTS/openbind_a71ev2a_c2_elabs_1LOUU54.sdf', '/opt/xchem-fragalysis-2/maxwin/BulkDock/OUTPUTS/openbind_a71ev2a_c2_elabs_1LSYIDY.sdf']

>  <name>  (27) 
P534914

>  <ref_pdb>  (27) 
A3968a

>  <subsites>  (27) 
None

>  <HIPPO Pose ID>  (27) 
534914

>  <ref_mols>  (27) 
A3968a

>  <HIPPO Compound ID>  (27) 
325237

>  <tags>  (27) 
openbind_a71ev2a_c2_elabs,syndirella_product,openbind_a71ev2a_c2_elabs_scored,BulkDock Fragalysis export,openbind_a71ev2a_c2_elabs_scored_top80percent,openbind_a71ev2a_c2_elabs_scored_top80percent_despaghettified,syndirella_placed

>  <smina_score_min>  (27) 
-6.869

$$$$
P534960
     RDKit          3D

 19 22  0  0  0  0  0  0  0  0999 V2000
   10.2262   14.7265   19.4350 O   0  0  0  0  0  0  0  0  0  0  0  0
   10.0929   14.8059   20.6364 C   0  0  0  0  0  0  0  0  0  0  0  0
   10.0422   13.8066   21.6067 N   0  0  0  0  0  0  0  0  0  0  0  0
   10.2904   14.4258   22.8914 C   0  0  1  0  0  0  0  0  0  0  0  0
   11.0971   15.6350   22.4879 C   0  0  0  0  0  0  0  0  0  0  0  0
   10.1049   16.0579   21.4299 C   0  0  2  0  0  0  0  0  0  0  0  0
    8.6938   16.2760   21.9925 C   0  0  0  0  0  0  0  0  0  0  0  0
    7.7446   15.4679   22.8539 N   0  0  0  0  0  0  0  0  0  0  0  0
    7.0117   14.2949   22.5706 C   0  0  0  0  0  0  0  0  0  0  0  0
    7.0216   13.5829   21.6056 O   0  0  0  0  0  0  0  0  0  0  0  0
    6.0003   14.0165   23.6740 C   0  0  2  0  0  0  0  0  0  0  0  0
    5.4291   15.2460   24.4792 C   0  0  0  0  0  0  0  0  0  0  0  0
    4.8749   14.6494   25.8163 C   0  0  0  0  0  0  0  0  0  0  0  0
    5.6957   13.4322   25.9157 C   0  0  0  0  0  0  0  0  0  0  0  0
    5.9041   12.2180   27.0372 S   0  0  0  0  0  0  0  0  0  0  0  0
    6.9952   11.3927   26.0226 N   0  0  0  0  0  0  0  0  0  0  0  0
    7.1440   11.9780   24.8322 N   0  0  0  0  0  0  0  0  0  0  0  0
    6.3780   13.1059   24.7731 C   0  0  0  0  0  0  0  0  0  0  0  0
    9.0387   15.1116   23.5726 C   0  0  0  0  0  0  0  0  0  0  0  0
  1  2  2  0
  2  3  1  0
  3  4  1  0
  4  5  1  0
  5  6  1  0
  6  7  1  1
  7  8  1  0
  8  9  1  0
  9 10  2  0
 11  9  1  1
 11 12  1  0
 12 13  1  0
 13 14  1  0
 14 15  1  0
 15 16  1  0
 16 17  2  0
 17 18  1  0
  8 19  1  0
  6  2  1  0
 18 11  1  0
  4 19  1  6
 18 14  2  0
M  END
>  <alias>  (28) 
None

>  <rmsd(smina/fragmenstein)>  (28) 
0.491

>  <smiles>  (28) 
O=C1N[C@H]2C[C@@H]1CN(C(=O)[C@@H]1CCc3snnc31)C2

>  <gnina_score>  (28) 
5.369

>  <inspiration_score>  (28) 
None

>  <energy_score>  (28) 
-17.845849

>  <distance_score>  (28) 
1.763054

>  <gnina_score_min>  (28) 
5.363

>  <inchikey>  (28) 
UJSUJSMPATWUHX-GJMOJQLCSA-N

>  <exports>  (28) 
['/opt/xchem-fragalysis-2/maxwin/BulkDock/OUTPUTS/openbind_a71ev2a_c2_elabs_1LOUU54.sdf', '/opt/xchem-fragalysis-2/maxwin/BulkDock/OUTPUTS/openbind_a71ev2a_c2_elabs_1LSYIDY.sdf']

>  <name>  (28) 
P534960

>  <ref_pdb>  (28) 
A4472a

>  <subsites>  (28) 
None

>  <HIPPO Pose ID>  (28) 
534960

>  <ref_mols>  (28) 
A4472a

>  <HIPPO Compound ID>  (28) 
326917

>  <tags>  (28) 
openbind_a71ev2a_c2_elabs,syndirella_product,openbind_a71ev2a_c2_elabs_scored,BulkDock Fragalysis export,openbind_a71ev2a_c2_elabs_scored_top80percent,openbind_a71ev2a_c2_elabs_scored_top80percent_despaghettified,syndirella_placed

>  <smina_score_min>  (28) 
-6.013

$$$$
P534965
     RDKit          3D

 20 22  0  0  0  0  0  0  0  0999 V2000
   11.4087   14.8619   18.7564 C   0  0  0  0  0  0  0  0  0  0  0  0
   10.8937   14.4651   20.0259 N   0  0  0  0  0  0  0  0  0  0  0  0
   10.9195   15.1201   21.2946 C   0  0  0  0  0  0  0  0  0  0  0  0
   11.4489   16.1364   21.6398 O   0  0  0  0  0  0  0  0  0  0  0  0
   10.0184   14.3721   22.2706 C   0  0  1  0  0  0  0  0  0  0  0  0
   10.8142   13.4865   23.1960 C   0  0  0  0  0  0  0  0  0  0  0  0
    9.8989   13.1051   24.3418 C   0  0  0  0  0  0  0  0  0  0  0  0
    9.0699   14.3251   24.8011 C   0  0  0  0  0  0  0  0  0  0  0  0
    8.0291   14.9139   23.8403 N   0  0  0  0  0  0  0  0  0  0  0  0
    7.0732   13.9148   23.4767 C   0  0  0  0  0  0  0  0  0  0  0  0
    7.0656   13.1354   22.5548 O   0  0  0  0  0  0  0  0  0  0  0  0
    5.8511   13.9731   24.3922 C   0  0  2  0  0  0  0  0  0  0  0  0
    5.5029   15.3485   25.0811 C   0  0  0  0  0  0  0  0  0  0  0  0
    4.8064   14.9950   26.4401 C   0  0  0  0  0  0  0  0  0  0  0  0
    5.3099   13.6299   26.6520 C   0  0  0  0  0  0  0  0  0  0  0  0
    5.2928   12.5172   27.8952 S   0  0  0  0  0  0  0  0  0  0  0  0
    6.1192   11.3697   26.9518 N   0  0  0  0  0  0  0  0  0  0  0  0
    6.4069   11.8075   25.7264 N   0  0  0  0  0  0  0  0  0  0  0  0
    5.9106   13.0678   25.5592 C   0  0  0  0  0  0  0  0  0  0  0  0
    9.2684   15.3909   23.1342 C   0  0  0  0  0  0  0  0  0  0  0  0
  1  2  1  0
  2  3  1  0
  3  4  2  0
  5  3  1  6
  5  6  1  0
  6  7  1  0
  7  8  1  0
  8  9  1  0
  9 10  1  0
 10 11  2  0
 12 10  1  1
 12 13  1  0
 13 14  1  0
 14 15  1  0
 15 16  1  0
 16 17  1  0
 17 18  2  0
 18 19  1  0
  9 20  1  0
 20  5  1  0
 19 12  1  0
 19 15  2  0
M  END
>  <alias>  (29) 
None

>  <rmsd(smina/fragmenstein)>  (29) 
0.527

>  <smiles>  (29) 
CNC(=O)[C@H]1CCCN(C(=O)[C@@H]2CCc3snnc32)C1

>  <gnina_score>  (29) 
5.509

>  <inspiration_score>  (29) 
None

>  <energy_score>  (29) 
-0.598073

>  <distance_score>  (29) 
1.941664

>  <gnina_score_min>  (29) 
5.479

>  <inchikey>  (29) 
DBDMCIXMWBFIAR-DTWKUNHWSA-N

>  <exports>  (29) 
['/opt/xchem-fragalysis-2/maxwin/BulkDock/OUTPUTS/openbind_a71ev2a_c2_elabs_1LOUU54.sdf', '/opt/xchem-fragalysis-2/maxwin/BulkDock/OUTPUTS/openbind_a71ev2a_c2_elabs_1LSYIDY.sdf']

>  <name>  (29) 
P534965

>  <ref_pdb>  (29) 
A4472a

>  <subsites>  (29) 
None

>  <HIPPO Pose ID>  (29) 
534965

>  <ref_mols>  (29) 
A4472a

>  <HIPPO Compound ID>  (29) 
326921

>  <tags>  (29) 
openbind_a71ev2a_c2_elabs,syndirella_product,openbind_a71ev2a_c2_elabs_scored,BulkDock Fragalysis export,openbind_a71ev2a_c2_elabs_scored_top80percent,openbind_a71ev2a_c2_elabs_scored_top80percent_despaghettified,syndirella_placed

>  <smina_score_min>  (29) 
-6.101

$$$$
P534967
     RDKit          3D

 21 24  0  0  0  0  0  0  0  0999 V2000
    6.6410   12.8598   22.4444 O   0  0  0  0  0  0  0  0  0  0  0  0
    7.2041   13.7566   23.0103 C   0  0  0  0  0  0  0  0  0  0  0  0
    6.3902   14.4454   24.1006 C   0  0  2  0  0  0  0  0  0  0  0  0
    6.8368   15.8255   24.6704 C   0  0  0  0  0  0  0  0  0  0  0  0
    6.2555   15.9019   26.1276 C   0  0  0  0  0  0  0  0  0  0  0  0
    6.1562   14.4675   26.4414 C   0  0  0  0  0  0  0  0  0  0  0  0
    5.8864   13.5350   27.7990 S   0  0  0  0  0  0  0  0  0  0  0  0
    6.0391   12.0927   26.9089 N   0  0  0  0  0  0  0  0  0  0  0  0
    6.2489   12.3056   25.6084 N   0  0  0  0  0  0  0  0  0  0  0  0
    6.2690   13.6481   25.3517 C   0  0  0  0  0  0  0  0  0  0  0  0
    8.4965   14.2886   22.8214 N   0  0  0  0  0  0  0  0  0  0  0  0
    9.4971   13.5737   23.7190 C   0  0  0  0  0  0  0  0  0  0  0  0
   10.8854   14.2314   23.9299 C   0  0  0  0  0  0  0  0  0  0  0  0
   11.0996   15.4154   22.9972 C   0  0  0  0  0  0  0  0  0  0  0  0
   10.6087   15.0535   21.6156 C   0  0  2  0  0  0  0  0  0  0  0  0
   11.7402   14.6022   20.6738 C   0  0  0  0  0  0  0  0  0  0  0  0
   11.1893   14.8193   19.2768 C   0  0  0  0  0  0  0  0  0  0  0  0
   10.2702   15.8901   19.4640 N   0  0  0  0  0  0  0  0  0  0  0  0
   10.0064   16.1648   20.7847 C   0  0  0  0  0  0  0  0  0  0  0  0
    9.3601   17.1247   21.1493 O   0  0  0  0  0  0  0  0  0  0  0  0
    9.5415   13.9837   21.7825 C   0  0  0  0  0  0  0  0  0  0  0  0
  1  2  2  0
  3  2  1  6
  3  4  1  0
  4  5  1  0
  5  6  1  0
  6  7  1  0
  7  8  1  0
  8  9  2  0
  9 10  1  0
  2 11  1  0
 11 12  1  0
 12 13  1  0
 13 14  1  0
 15 14  1  1
 15 16  1  0
 16 17  1  0
 17 18  1  0
 18 19  1  0
 19 20  2  0
 15 21  1  0
 10  3  1  0
 21 11  1  0
 10  6  2  0
 19 15  1  0
M  END
>  <alias>  (30) 
None

>  <rmsd(smina/fragmenstein)>  (30) 
0.599

>  <smiles>  (30) 
O=C([C@@H]1CCc2snnc21)N1CCC[C@@]2(CCNC2=O)C1

>  <gnina_score>  (30) 
5.394

>  <inspiration_score>  (30) 
None

>  <energy_score>  (30) 
-10.888659

>  <distance_score>  (30) 
1.650087

>  <gnina_score_min>  (30) 
5.326

>  <inchikey>  (30) 
YNDQTKWUHHSDQA-YMTOWFKASA-N

>  <exports>  (30) 
['/opt/xchem-fragalysis-2/maxwin/BulkDock/OUTPUTS/openbind_a71ev2a_c2_elabs_1LOUU54.sdf', '/opt/xchem-fragalysis-2/maxwin/BulkDock/OUTPUTS/openbind_a71ev2a_c2_elabs_1LSYIDY.sdf']

>  <name>  (30) 
P534967

>  <ref_pdb>  (30) 
A4472a

>  <subsites>  (30) 
None

>  <HIPPO Pose ID>  (30) 
534967

>  <ref_mols>  (30) 
A4472a

>  <HIPPO Compound ID>  (30) 
326927

>  <tags>  (30) 
openbind_a71ev2a_c2_elabs,syndirella_product,openbind_a71ev2a_c2_elabs_scored,BulkDock Fragalysis export,openbind_a71ev2a_c2_elabs_scored_top80percent,openbind_a71ev2a_c2_elabs_scored_top80percent_despaghettified,syndirella_placed

>  <smina_score_min>  (30) 
-7.026

$$$$
P534972
     RDKit          3D

 21 23  0  0  0  0  0  0  0  0999 V2000
   11.2211   14.8769   18.7423 C   0  0  0  0  0  0  0  0  0  0  0  0
   10.8089   14.5117   20.0608 N   0  0  0  0  0  0  0  0  0  0  0  0
   10.8497   15.2363   21.2895 C   0  0  0  0  0  0  0  0  0  0  0  0
   11.3123   16.3091   21.5502 O   0  0  0  0  0  0  0  0  0  0  0  0
   10.1754   14.4094   22.3944 C   0  0  1  0  0  0  0  0  0  0  0  0
    9.1481   13.6626   21.8981 F   0  0  0  0  0  0  0  0  0  0  0  0
   11.1971   13.4848   23.0044 C   0  0  0  0  0  0  0  0  0  0  0  0
   10.7019   13.0802   24.3710 C   0  0  0  0  0  0  0  0  0  0  0  0
   10.1499   14.3185   25.0966 C   0  0  0  0  0  0  0  0  0  0  0  0
    8.8087   14.8970   24.6451 N   0  0  0  0  0  0  0  0  0  0  0  0
    7.7819   13.8859   24.7212 C   0  0  0  0  0  0  0  0  0  0  0  0
    7.3985   13.0991   23.8987 O   0  0  0  0  0  0  0  0  0  0  0  0
    7.1403   14.0568   26.0891 C   0  0  1  0  0  0  0  0  0  0  0  0
    6.1838   15.3107   26.0864 C   0  0  0  0  0  0  0  0  0  0  0  0
    4.9683   14.9668   27.0061 C   0  0  0  0  0  0  0  0  0  0  0  0
    5.0989   13.5071   27.1025 C   0  0  0  0  0  0  0  0  0  0  0  0
    4.2725   12.2916   27.8933 S   0  0  0  0  0  0  0  0  0  0  0  0
    5.4147   11.1277   27.4170 N   0  0  0  0  0  0  0  0  0  0  0  0
    6.4337   11.6469   26.7301 N   0  0  0  0  0  0  0  0  0  0  0  0
    6.2367   12.9867   26.5498 C   0  0  0  0  0  0  0  0  0  0  0  0
    9.6487   15.3651   23.4761 C   0  0  0  0  0  0  0  0  0  0  0  0
  1  2  1  0
  2  3  1  0
  3  4  2  0
  3  5  1  0
  5  6  1  6
  5  7  1  0
  7  8  1  0
  8  9  1  0
  9 10  1  0
 10 11  1  0
 11 12  2  0
 13 11  1  6
 13 14  1  0
 14 15  1  0
 15 16  1  0
 16 17  1  0
 17 18  1  0
 18 19  2  0
 19 20  1  0
 10 21  1  0
 21  5  1  0
 20 13  1  0
 20 16  2  0
M  END
>  <alias>  (31) 
None

>  <rmsd(smina/fragmenstein)>  (31) 
0.628

>  <smiles>  (31) 
CNC(=O)[C@@]1(F)CCCN(C(=O)[C@H]2CCc3snnc32)C1

>  <gnina_score>  (31) 
5.652

>  <inspiration_score>  (31) 
None

>  <energy_score>  (31) 
-25.661669

>  <distance_score>  (31) 
1.886092

>  <gnina_score_min>  (31) 
5.681

>  <inchikey>  (31) 
ZTPWYTWLURROBA-ISVAXAHUSA-N

>  <exports>  (31) 
['/opt/xchem-fragalysis-2/maxwin/BulkDock/OUTPUTS/openbind_a71ev2a_c2_elabs_1LOUU54.sdf', '/opt/xchem-fragalysis-2/maxwin/BulkDock/OUTPUTS/openbind_a71ev2a_c2_elabs_1LSYIDY.sdf']

>  <name>  (31) 
P534972

>  <ref_pdb>  (31) 
A4472a

>  <subsites>  (31) 
None

>  <HIPPO Pose ID>  (31) 
534972

>  <ref_mols>  (31) 
A4472a

>  <HIPPO Compound ID>  (31) 
326934

>  <tags>  (31) 
openbind_a71ev2a_c2_elabs,syndirella_product,openbind_a71ev2a_c2_elabs_scored,BulkDock Fragalysis export,openbind_a71ev2a_c2_elabs_scored_top80percent,openbind_a71ev2a_c2_elabs_scored_top80percent_despaghettified,syndirella_placed

>  <smina_score_min>  (31) 
-6.742

$$$$
P534976
     RDKit          3D

 21 24  0  0  0  0  0  0  0  0999 V2000
   12.5758   13.5240   19.4174 O   0  0  0  0  0  0  0  0  0  0  0  0
   11.6486   14.2737   19.6313 C   0  0  0  0  0  0  0  0  0  0  0  0
   10.8716   14.8983   18.7028 N   0  0  0  0  0  0  0  0  0  0  0  0
   10.0169   15.7369   19.3390 C   0  0  0  0  0  0  0  0  0  0  0  0
    9.5842   16.7901   18.9272 O   0  0  0  0  0  0  0  0  0  0  0  0
    9.8194   15.1635   20.6984 C   0  0  2  0  0  0  0  0  0  0  0  0
    9.3620   16.0318   21.8382 C   0  0  0  0  0  0  0  0  0  0  0  0
    8.9899   15.3567   23.1661 N   0  0  0  0  0  0  0  0  0  0  0  0
    8.2816   14.1286   23.4305 C   0  0  0  0  0  0  0  0  0  0  0  0
    7.8840   13.2785   22.6791 O   0  0  0  0  0  0  0  0  0  0  0  0
    8.0143   14.1095   24.9355 C   0  0  1  0  0  0  0  0  0  0  0  0
    7.0313   15.2683   25.3736 C   0  0  0  0  0  0  0  0  0  0  0  0
    5.7204   14.6139   25.9249 C   0  0  0  0  0  0  0  0  0  0  0  0
    6.1300   13.2117   26.0280 C   0  0  0  0  0  0  0  0  0  0  0  0
    5.5502   11.8540   26.8031 S   0  0  0  0  0  0  0  0  0  0  0  0
    6.8501   10.9119   26.2502 N   0  0  0  0  0  0  0  0  0  0  0  0
    7.7540   11.6188   25.5725 N   0  0  0  0  0  0  0  0  0  0  0  0
    7.3250   12.9089   25.4403 C   0  0  0  0  0  0  0  0  0  0  0  0
   10.5097   15.1105   23.2185 C   0  0  0  0  0  0  0  0  0  0  0  0
   11.2013   14.0908   22.2722 C   0  0  0  0  0  0  0  0  0  0  0  0
   11.2500   14.8082   20.9672 C   0  0  1  0  0  0  0  0  0  0  0  0
  1  2  2  0
  2  3  1  0
  3  4  1  0
  4  5  2  0
  4  6  1  0
  6  7  1  1
  7  8  1  0
  8  9  1  0
  9 10  2  0
 11  9  1  6
 11 12  1  0
 12 13  1  0
 13 14  1  0
 14 15  1  0
 15 16  1  0
 16 17  2  0
 17 18  1  0
  8 19  1  0
 19 20  1  0
 21 20  1  1
 21  2  1  0
 21  6  1  0
 18 11  1  0
 18 14  2  0
M  END
>  <alias>  (32) 
None

>  <rmsd(smina/fragmenstein)>  (32) 
0.734

>  <smiles>  (32) 
O=C1NC(=O)[C@@H]2CN(C(=O)[C@H]3CCc4snnc43)CC[C@@H]12

>  <gnina_score>  (32) 
5.865

>  <inspiration_score>  (32) 
None

>  <energy_score>  (32) 
-14.097626

>  <distance_score>  (32) 
0.70671

>  <gnina_score_min>  (32) 
5.583

>  <inchikey>  (32) 
NTRZSKJOBZUXTR-GJMOJQLCSA-N

>  <exports>  (32) 
['/opt/xchem-fragalysis-2/maxwin/BulkDock/OUTPUTS/openbind_a71ev2a_c2_elabs_1LOUU54.sdf', '/opt/xchem-fragalysis-2/maxwin/BulkDock/OUTPUTS/openbind_a71ev2a_c2_elabs_1LSYIDY.sdf']

>  <name>  (32) 
P534976

>  <ref_pdb>  (32) 
A4472a

>  <subsites>  (32) 
None

>  <HIPPO Pose ID>  (32) 
534976

>  <ref_mols>  (32) 
A4472a

>  <HIPPO Compound ID>  (32) 
326936

>  <tags>  (32) 
openbind_a71ev2a_c2_elabs,syndirella_product,openbind_a71ev2a_c2_elabs_scored,BulkDock Fragalysis export,openbind_a71ev2a_c2_elabs_scored_top80percent,openbind_a71ev2a_c2_elabs_scored_top80percent_despaghettified,syndirella_placed

>  <smina_score_min>  (32) 
-6.621

$$$$
P534979
     RDKit          3D

 21 23  0  0  0  0  0  0  0  0999 V2000
   11.2422   14.7538   18.3789 C   0  0  0  0  0  0  0  0  0  0  0  0
   11.0221   14.7171   19.7809 N   0  0  0  0  0  0  0  0  0  0  0  0
   10.2604   15.5587   20.6228 C   0  0  0  0  0  0  0  0  0  0  0  0
    9.6648   16.5687   20.3863 O   0  0  0  0  0  0  0  0  0  0  0  0
   10.3157   15.1228   22.0920 C   0  0  2  0  0  0  0  0  0  0  0  0
   10.6820   13.7276   22.5342 C   0  0  0  0  0  0  0  0  0  0  0  0
   10.7138   13.8324   24.0508 C   0  0  2  0  0  0  0  0  0  0  0  0
   10.5422   12.4921   24.7574 C   0  0  0  0  0  0  0  0  0  0  0  0
    9.7484   14.9647   24.4999 C   0  0  0  0  0  0  0  0  0  0  0  0
    8.3097   14.9955   24.0415 N   0  0  0  0  0  0  0  0  0  0  0  0
    7.6654   13.7456   24.3496 C   0  0  0  0  0  0  0  0  0  0  0  0
    7.5549   12.7430   23.6977 O   0  0  0  0  0  0  0  0  0  0  0  0
    7.0645   13.9343   25.7394 C   0  0  1  0  0  0  0  0  0  0  0  0
    6.0366   15.1310   25.7781 C   0  0  0  0  0  0  0  0  0  0  0  0
    4.9580   14.7737   26.8478 C   0  0  0  0  0  0  0  0  0  0  0  0
    5.1590   13.3236   26.9593 C   0  0  0  0  0  0  0  0  0  0  0  0
    4.4731   12.1002   27.8632 S   0  0  0  0  0  0  0  0  0  0  0  0
    5.5918   10.9669   27.2764 N   0  0  0  0  0  0  0  0  0  0  0  0
    6.5255   11.5095   26.4926 N   0  0  0  0  0  0  0  0  0  0  0  0
    6.2562   12.8346   26.3018 C   0  0  0  0  0  0  0  0  0  0  0  0
    8.9565   15.4900   22.7508 C   0  0  0  0  0  0  0  0  0  0  0  0
  1  2  1  0
  2  3  1  0
  3  4  2  0
  5  3  1  6
  5  6  1  0
  6  7  1  0
  7  8  1  1
  7  9  1  0
  9 10  1  0
 10 11  1  0
 11 12  2  0
 13 11  1  6
 13 14  1  0
 14 15  1  0
 15 16  1  0
 16 17  1  0
 17 18  1  0
 18 19  2  0
 19 20  1  0
 10 21  1  0
 21  5  1  0
 20 13  1  0
 20 16  2  0
M  END
>  <alias>  (33) 
None

>  <rmsd(smina/fragmenstein)>  (33) 
0.674

>  <smiles>  (33) 
CNC(=O)[C@@H]1C[C@H](C)CN(C(=O)[C@H]2CCc3snnc32)C1

>  <gnina_score>  (33) 
5.744

>  <inspiration_score>  (33) 
None

>  <energy_score>  (33) 
-6.452924

>  <distance_score>  (33) 
1.515179

>  <gnina_score_min>  (33) 
5.851

>  <inchikey>  (33) 
DKHQPVZGUQERJM-AEJSXWLSSA-N

>  <exports>  (33) 
['/opt/xchem-fragalysis-2/maxwin/BulkDock/OUTPUTS/openbind_a71ev2a_c2_elabs_1LOUU54.sdf', '/opt/xchem-fragalysis-2/maxwin/BulkDock/OUTPUTS/openbind_a71ev2a_c2_elabs_1LSYIDY.sdf']

>  <name>  (33) 
P534979

>  <ref_pdb>  (33) 
A4472a

>  <subsites>  (33) 
None

>  <HIPPO Pose ID>  (33) 
534979

>  <ref_mols>  (33) 
A4472a

>  <HIPPO Compound ID>  (33) 
326939

>  <tags>  (33) 
openbind_a71ev2a_c2_elabs,syndirella_product,openbind_a71ev2a_c2_elabs_scored,BulkDock Fragalysis export,openbind_a71ev2a_c2_elabs_scored_top80percent,openbind_a71ev2a_c2_elabs_scored_top80percent_despaghettified,syndirella_placed

>  <smina_score_min>  (33) 
-6.98

$$$$
P534982
     RDKit          3D

 22 25  0  0  0  0  0  0  0  0999 V2000
   11.7007   13.8358   18.6367 O   0  0  0  0  0  0  0  0  0  0  0  0
   10.8443   14.4700   19.2228 C   0  0  0  0  0  0  0  0  0  0  0  0
   10.4247   15.6724   18.8526 N   0  0  0  0  0  0  0  0  0  0  0  0
    9.9510   16.2954   19.9464 C   0  0  0  0  0  0  0  0  0  0  0  0
    9.5288   17.4367   19.9917 O   0  0  0  0  0  0  0  0  0  0  0  0
   10.1567   15.3647   21.1185 C   0  0  1  0  0  0  0  0  0  0  0  0
   11.5126   15.5437   21.7675 C   0  0  0  0  0  0  0  0  0  0  0  0
   11.4123   14.7026   23.0077 C   0  0  0  0  0  0  0  0  0  0  0  0
   10.2140   15.2825   23.7450 C   0  0  0  0  0  0  0  0  0  0  0  0
    8.7930   14.8310   23.5184 N   0  0  0  0  0  0  0  0  0  0  0  0
    8.6624   13.4518   23.8455 C   0  0  0  0  0  0  0  0  0  0  0  0
    8.7830   12.4729   23.1614 O   0  0  0  0  0  0  0  0  0  0  0  0
    8.4222   13.3446   25.3683 C   0  0  1  0  0  0  0  0  0  0  0  0
    7.9942   14.6784   26.1374 C   0  0  0  0  0  0  0  0  0  0  0  0
    6.4421   14.6377   26.2871 C   0  0  0  0  0  0  0  0  0  0  0  0
    6.2479   13.1860   26.2793 C   0  0  0  0  0  0  0  0  0  0  0  0
    5.1974   12.1408   27.0429 S   0  0  0  0  0  0  0  0  0  0  0  0
    6.1118   10.7933   26.5718 N   0  0  0  0  0  0  0  0  0  0  0  0
    7.2254   11.1165   25.9138 N   0  0  0  0  0  0  0  0  0  0  0  0
    7.2805   12.4696   25.7317 C   0  0  0  0  0  0  0  0  0  0  0  0
    9.0162   15.5303   22.1574 C   0  0  0  0  0  0  0  0  0  0  0  0
   10.2460   14.1411   20.4124 O   0  0  0  0  0  0  0  0  0  0  0  0
  1  2  2  0
  2  3  1  0
  3  4  1  0
  4  5  2  0
  4  6  1  0
  6  7  1  1
  7  8  1  0
  8  9  1  0
  9 10  1  0
 10 11  1  0
 11 12  2  0
 13 11  1  6
 13 14  1  0
 14 15  1  0
 15 16  1  0
 16 17  1  0
 17 18  1  0
 18 19  2  0
 19 20  1  0
 10 21  1  0
  6 22  1  0
 22  2  1  0
 21  6  1  0
 20 13  1  0
 20 16  2  0
M  END
>  <alias>  (34) 
None

>  <rmsd(smina/fragmenstein)>  (34) 
0.474

>  <smiles>  (34) 
O=C1NC(=O)[C@]2(CCCN(C(=O)[C@H]3CCc4snnc43)C2)O1

>  <gnina_score>  (34) 
5.499

>  <inspiration_score>  (34) 
None

>  <energy_score>  (34) 
-2.562713

>  <distance_score>  (34) 
0.811373

>  <gnina_score_min>  (34) 
5.424

>  <inchikey>  (34) 
GLLFTCHKHOITBU-WPPNPWJKSA-N

>  <exports>  (34) 
['/opt/xchem-fragalysis-2/maxwin/BulkDock/OUTPUTS/openbind_a71ev2a_c2_elabs_1LOUU54.sdf', '/opt/xchem-fragalysis-2/maxwin/BulkDock/OUTPUTS/openbind_a71ev2a_c2_elabs_1LSYIDY.sdf']

>  <name>  (34) 
P534982

>  <ref_pdb>  (34) 
A4472a

>  <subsites>  (34) 
None

>  <HIPPO Pose ID>  (34) 
534982

>  <ref_mols>  (34) 
A4472a

>  <HIPPO Compound ID>  (34) 
326942

>  <tags>  (34) 
openbind_a71ev2a_c2_elabs,syndirella_product,openbind_a71ev2a_c2_elabs_scored,BulkDock Fragalysis export,openbind_a71ev2a_c2_elabs_scored_top80percent,openbind_a71ev2a_c2_elabs_scored_top80percent_despaghettified,syndirella_placed

>  <smina_score_min>  (34) 
-8.34

$$$$
P534984
     RDKit          3D

 22 25  0  0  0  0  0  0  0  0999 V2000
   11.5396   13.8967   18.4577 O   0  0  0  0  0  0  0  0  0  0  0  0
   10.7739   14.5473   19.1391 C   0  0  0  0  0  0  0  0  0  0  0  0
   10.4599   15.8282   18.9201 N   0  0  0  0  0  0  0  0  0  0  0  0
    9.9568   16.3480   20.0649 C   0  0  0  0  0  0  0  0  0  0  0  0
    9.5716   17.4963   20.2050 O   0  0  0  0  0  0  0  0  0  0  0  0
   10.1247   15.3113   21.1800 C   0  0  1  0  0  0  0  0  0  0  0  0
   11.4930   15.4634   21.8223 C   0  0  0  0  0  0  0  0  0  0  0  0
   11.3929   14.6539   23.0810 C   0  0  0  0  0  0  0  0  0  0  0  0
   10.1927   15.2479   23.8063 C   0  0  0  0  0  0  0  0  0  0  0  0
    8.7782   14.7699   23.5721 N   0  0  0  0  0  0  0  0  0  0  0  0
    8.6733   13.3887   23.8873 C   0  0  0  0  0  0  0  0  0  0  0  0
    8.8145   12.4174   23.1957 O   0  0  0  0  0  0  0  0  0  0  0  0
    8.4306   13.2712   25.4092 C   0  0  1  0  0  0  0  0  0  0  0  0
    8.0218   14.6055   26.1935 C   0  0  0  0  0  0  0  0  0  0  0  0
    6.4687   14.5925   26.3319 C   0  0  0  0  0  0  0  0  0  0  0  0
    6.2494   13.1450   26.3104 C   0  0  0  0  0  0  0  0  0  0  0  0
    5.1830   12.1142   27.0711 S   0  0  0  0  0  0  0  0  0  0  0  0
    6.0758   10.7547   26.5942 N   0  0  0  0  0  0  0  0  0  0  0  0
    7.1946   11.0622   25.9375 N   0  0  0  0  0  0  0  0  0  0  0  0
    7.2713   12.4145   25.7603 C   0  0  0  0  0  0  0  0  0  0  0  0
    8.9905   15.4806   22.2248 C   0  0  0  0  0  0  0  0  0  0  0  0
   10.1850   14.1580   20.3372 N   0  0  0  0  0  0  0  0  0  0  0  0
  1  2  2  0
  2  3  1  0
  3  4  1  0
  4  5  2  0
  4  6  1  0
  6  7  1  1
  7  8  1  0
  8  9  1  0
  9 10  1  0
 10 11  1  0
 11 12  2  0
 13 11  1  6
 13 14  1  0
 14 15  1  0
 15 16  1  0
 16 17  1  0
 17 18  1  0
 18 19  2  0
 19 20  1  0
 10 21  1  0
  6 22  1  0
 22  2  1  0
 21  6  1  0
 20 13  1  0
 20 16  2  0
M  END
>  <alias>  (35) 
None

>  <rmsd(smina/fragmenstein)>  (35) 
0.413

>  <smiles>  (35) 
O=C1NC(=O)[C@]2(CCCN(C(=O)[C@H]3CCc4snnc43)C2)N1

>  <gnina_score>  (35) 
5.851

>  <inspiration_score>  (35) 
None

>  <energy_score>  (35) 
-19.221854

>  <distance_score>  (35) 
0.872419

>  <gnina_score_min>  (35) 
5.832

>  <inchikey>  (35) 
YMKRACXUBGDCOA-WPPNPWJKSA-N

>  <exports>  (35) 
['/opt/xchem-fragalysis-2/maxwin/BulkDock/OUTPUTS/openbind_a71ev2a_c2_elabs_1LOUU54.sdf', '/opt/xchem-fragalysis-2/maxwin/BulkDock/OUTPUTS/openbind_a71ev2a_c2_elabs_1LSYIDY.sdf']

>  <name>  (35) 
P534984

>  <ref_pdb>  (35) 
A4472a

>  <subsites>  (35) 
None

>  <HIPPO Pose ID>  (35) 
534984

>  <ref_mols>  (35) 
A4472a

>  <HIPPO Compound ID>  (35) 
326945

>  <tags>  (35) 
openbind_a71ev2a_c2_elabs,syndirella_product,openbind_a71ev2a_c2_elabs_scored,BulkDock Fragalysis export,openbind_a71ev2a_c2_elabs_scored_top80percent,openbind_a71ev2a_c2_elabs_scored_top80percent_despaghettified,syndirella_placed

>  <smina_score_min>  (35) 
-8.677

$$$$
P534986
     RDKit          3D

 22 24  0  0  0  0  0  0  0  0999 V2000
    9.3667   15.2285   18.5417 C   0  0  0  0  0  0  0  0  0  0  0  0
   10.7363   15.5114   19.0619 C   0  0  0  0  0  0  0  0  0  0  0  0
   11.8191   14.9332   18.2120 C   0  0  0  0  0  0  0  0  0  0  0  0
   10.8752   15.0525   20.4132 N   0  0  0  0  0  0  0  0  0  0  0  0
   10.9433   15.7536   21.6160 C   0  0  0  0  0  0  0  0  0  0  0  0
   10.9857   16.9305   21.8364 O   0  0  0  0  0  0  0  0  0  0  0  0
   10.8424   14.8772   22.8453 C   0  0  2  0  0  0  0  0  0  0  0  0
   11.9483   13.9329   23.1846 C   0  0  0  0  0  0  0  0  0  0  0  0
   11.4315   13.1266   24.3659 C   0  0  0  0  0  0  0  0  0  0  0  0
    9.9713   12.6914   24.1347 C   0  0  0  0  0  0  0  0  0  0  0  0
    8.9129   13.8128   24.0359 N   0  0  0  0  0  0  0  0  0  0  0  0
    7.6304   13.2992   24.3437 C   0  0  0  0  0  0  0  0  0  0  0  0
    6.7879   12.8289   23.6307 O   0  0  0  0  0  0  0  0  0  0  0  0
    7.4267   13.5512   25.8260 C   0  0  1  0  0  0  0  0  0  0  0  0
    6.9275   15.0480   26.0205 C   0  0  0  0  0  0  0  0  0  0  0  0
    5.3806   14.9750   26.2702 C   0  0  0  0  0  0  0  0  0  0  0  0
    5.2564   13.5846   26.7386 C   0  0  0  0  0  0  0  0  0  0  0  0
    4.1680   12.7160   27.6612 S   0  0  0  0  0  0  0  0  0  0  0  0
    5.1509   11.3295   27.6225 N   0  0  0  0  0  0  0  0  0  0  0  0
    6.2805   11.5109   26.9312 N   0  0  0  0  0  0  0  0  0  0  0  0
    6.3283   12.7880   26.4434 C   0  0  0  0  0  0  0  0  0  0  0  0
    9.5767   14.0333   22.7344 C   0  0  0  0  0  0  0  0  0  0  0  0
  1  2  1  0
  2  3  1  0
  2  4  1  0
  4  5  1  0
  5  6  2  0
  7  5  1  6
  7  8  1  0
  8  9  1  0
  9 10  1  0
 10 11  1  0
 11 12  1  0
 12 13  2  0
 14 12  1  6
 14 15  1  0
 15 16  1  0
 16 17  1  0
 17 18  1  0
 18 19  1  0
 19 20  2  0
 20 21  1  0
 11 22  1  0
 22  7  1  0
 21 14  1  0
 21 17  2  0
M  END
>  <alias>  (36) 
None

>  <rmsd(smina/fragmenstein)>  (36) 
0.775

>  <smiles>  (36) 
CC(C)NC(=O)[C@@H]1CCCN(C(=O)[C@H]2CCc3snnc32)C1

>  <gnina_score>  (36) 
5.497

>  <inspiration_score>  (36) 
None

>  <energy_score>  (36) 
-20.879908

>  <distance_score>  (36) 
1.868845

>  <gnina_score_min>  (36) 
5.497

>  <inchikey>  (36) 
FXVONWWPWMEUEH-MNOVXSKESA-N

>  <exports>  (36) 
['/opt/xchem-fragalysis-2/maxwin/BulkDock/OUTPUTS/openbind_a71ev2a_c2_elabs_1LOUU54.sdf', '/opt/xchem-fragalysis-2/maxwin/BulkDock/OUTPUTS/openbind_a71ev2a_c2_elabs_1LSYIDY.sdf']

>  <name>  (36) 
P534986

>  <ref_pdb>  (36) 
A4472a

>  <subsites>  (36) 
None

>  <HIPPO Pose ID>  (36) 
534986

>  <ref_mols>  (36) 
A4472a

>  <HIPPO Compound ID>  (36) 
326947

>  <tags>  (36) 
openbind_a71ev2a_c2_elabs,syndirella_product,openbind_a71ev2a_c2_elabs_scored,BulkDock Fragalysis export,openbind_a71ev2a_c2_elabs_scored_top80percent,openbind_a71ev2a_c2_elabs_scored_top80percent_despaghettified,syndirella_placed

>  <smina_score_min>  (36) 
-5.764

$$$$
P534987
     RDKit          3D

 22 25  0  0  0  0  0  0  0  0999 V2000
    7.3655   14.0475   23.1827 O   0  0  0  0  0  0  0  0  0  0  0  0
    7.8623   14.6415   24.1041 C   0  0  0  0  0  0  0  0  0  0  0  0
    7.1274   14.8596   25.4154 C   0  0  1  0  0  0  0  0  0  0  0  0
    5.8514   15.7564   25.2476 C   0  0  0  0  0  0  0  0  0  0  0  0
    4.7781   15.1992   26.2466 C   0  0  0  0  0  0  0  0  0  0  0  0
    5.2960   13.8422   26.4742 C   0  0  0  0  0  0  0  0  0  0  0  0
    4.7825   12.4681   27.2673 S   0  0  0  0  0  0  0  0  0  0  0  0
    6.1833   11.6149   26.8234 N   0  0  0  0  0  0  0  0  0  0  0  0
    7.0604   12.3679   26.1570 N   0  0  0  0  0  0  0  0  0  0  0  0
    6.5505   13.6219   25.9802 C   0  0  0  0  0  0  0  0  0  0  0  0
    9.1363   15.3088   24.2114 N   0  0  0  0  0  0  0  0  0  0  0  0
   10.1848   14.3475   24.7293 C   0  0  0  0  0  0  0  0  0  0  0  0
   10.2803   13.0086   24.0074 C   0  0  0  0  0  0  0  0  0  0  0  0
   10.7751   13.1964   22.5953 C   0  0  0  0  0  0  0  0  0  0  0  0
   10.4763   14.5822   22.0172 C   0  0  2  0  0  0  0  0  0  0  0  0
    9.3283   14.6535   20.9701 C   0  0  0  0  0  0  0  0  0  0  0  0
    9.7216   15.4053   19.6787 C   0  0  0  0  0  0  0  0  0  0  0  0
   10.9975   14.8712   19.0439 C   0  0  0  0  0  0  0  0  0  0  0  0
   11.8819   14.3396   20.0509 N   0  0  0  0  0  0  0  0  0  0  0  0
   11.7375   15.0049   21.2602 C   0  0  0  0  0  0  0  0  0  0  0  0
   12.4948   15.8801   21.6480 O   0  0  0  0  0  0  0  0  0  0  0  0
   10.2082   15.5746   23.1667 C   0  0  0  0  0  0  0  0  0  0  0  0
  1  2  2  0
  3  2  1  6
  3  4  1  0
  4  5  1  0
  5  6  1  0
  6  7  1  0
  7  8  1  0
  8  9  2  0
  9 10  1  0
  2 11  1  0
 11 12  1  0
 12 13  1  0
 13 14  1  0
 15 14  1  1
 15 16  1  0
 16 17  1  0
 17 18  1  0
 18 19  1  0
 19 20  1  0
 20 21  2  0
 15 22  1  0
 10  3  1  0
 22 11  1  0
 10  6  2  0
 20 15  1  0
M  END
>  <alias>  (37) 
None

>  <rmsd(smina/fragmenstein)>  (37) 
1.024

>  <smiles>  (37) 
O=C([C@H]1CCc2snnc21)N1CCC[C@@]2(CCCNC2=O)C1

>  <gnina_score>  (37) 
5.876

>  <inspiration_score>  (37) 
None

>  <energy_score>  (37) 
-17.790921

>  <distance_score>  (37) 
1.907188

>  <gnina_score_min>  (37) 
5.584

>  <inchikey>  (37) 
PWQVKKLLAYMDOO-BONVTDFDSA-N

>  <exports>  (37) 
['/opt/xchem-fragalysis-2/maxwin/BulkDock/OUTPUTS/openbind_a71ev2a_c2_elabs_1LOUU54.sdf', '/opt/xchem-fragalysis-2/maxwin/BulkDock/OUTPUTS/openbind_a71ev2a_c2_elabs_1LSYIDY.sdf']

>  <name>  (37) 
P534987

>  <ref_pdb>  (37) 
A4472a

>  <subsites>  (37) 
None

>  <HIPPO Pose ID>  (37) 
534987

>  <ref_mols>  (37) 
A4472a

>  <HIPPO Compound ID>  (37) 
326948

>  <tags>  (37) 
openbind_a71ev2a_c2_elabs,syndirella_product,openbind_a71ev2a_c2_elabs_scored,BulkDock Fragalysis export,openbind_a71ev2a_c2_elabs_scored_top80percent,openbind_a71ev2a_c2_elabs_scored_top80percent_despaghettified,syndirella_placed

>  <smina_score_min>  (37) 
-7.353

$$$$
P534988
     RDKit          3D

 23 26  0  0  0  0  0  0  0  0999 V2000
   10.6256   15.3329   18.5143 C   0  0  0  0  0  0  0  0  0  0  0  0
   10.9375   15.0925   19.8848 N   0  0  0  0  0  0  0  0  0  0  0  0
   11.7729   14.1093   20.2528 C   0  0  0  0  0  0  0  0  0  0  0  0
   12.5265   13.5084   19.5118 O   0  0  0  0  0  0  0  0  0  0  0  0
   11.5799   13.8179   21.5797 N   0  0  0  0  0  0  0  0  0  0  0  0
   10.5064   14.5994   22.1565 C   0  0  2  0  0  0  0  0  0  0  0  0
   11.0472   15.3120   23.3638 C   0  0  0  0  0  0  0  0  0  0  0  0
    9.9900   15.2618   24.4237 C   0  0  0  0  0  0  0  0  0  0  0  0
    8.6291   15.1831   23.7177 C   0  0  0  0  0  0  0  0  0  0  0  0
    8.0652   13.8193   23.4906 N   0  0  0  0  0  0  0  0  0  0  0  0
    7.9304   13.1245   24.7491 C   0  0  0  0  0  0  0  0  0  0  0  0
    8.6983   12.4028   25.3284 O   0  0  0  0  0  0  0  0  0  0  0  0
    6.4944   13.3684   25.2578 C   0  0  2  0  0  0  0  0  0  0  0  0
    6.3007   14.7530   25.9929 C   0  0  0  0  0  0  0  0  0  0  0  0
    5.2663   14.5415   27.1430 C   0  0  0  0  0  0  0  0  0  0  0  0
    5.3568   13.0901   27.3096 C   0  0  0  0  0  0  0  0  0  0  0  0
    4.7639   11.9770   28.4018 S   0  0  0  0  0  0  0  0  0  0  0  0
    5.4095   10.6864   27.5127 N   0  0  0  0  0  0  0  0  0  0  0  0
    6.0788   11.0775   26.4261 N   0  0  0  0  0  0  0  0  0  0  0  0
    6.0352   12.4366   26.3169 C   0  0  0  0  0  0  0  0  0  0  0  0
    9.1903   13.7705   22.4223 C   0  0  0  0  0  0  0  0  0  0  0  0
   10.2233   15.5274   20.9464 C   0  0  0  0  0  0  0  0  0  0  0  0
    9.4313   16.4576   20.9223 O   0  0  0  0  0  0  0  0  0  0  0  0
  1  2  1  0
  2  3  1  0
  3  4  2  0
  3  5  1  0
  6  5  1  0
  6  7  1  1
  7  8  1  0
  8  9  1  0
  9 10  1  0
 10 11  1  0
 11 12  2  0
 13 11  1  1
 13 14  1  0
 14 15  1  0
 15 16  1  0
 16 17  1  0
 17 18  1  0
 18 19  2  0
 19 20  1  0
 10 21  1  0
  6 22  1  0
 22 23  2  0
 22  2  1  0
 21  6  1  0
 20 13  1  0
 20 16  2  0
M  END
>  <alias>  (38) 
None

>  <rmsd(smina/fragmenstein)>  (38) 
0.737

>  <smiles>  (38) 
CN1C(=O)N[C@@]2(CCCN(C(=O)[C@@H]3CCc4snnc43)C2)C1=O

>  <gnina_score>  (38) 
5.614

>  <inspiration_score>  (38) 
None

>  <energy_score>  (38) 
-0.918403

>  <distance_score>  (38) 
1.80443

>  <gnina_score_min>  (38) 
5.364

>  <inchikey>  (38) 
PQPDDLUMIOUGCZ-XLKFXECMSA-N

>  <exports>  (38) 
['/opt/xchem-fragalysis-2/maxwin/BulkDock/OUTPUTS/openbind_a71ev2a_c2_elabs_1LOUU54.sdf', '/opt/xchem-fragalysis-2/maxwin/BulkDock/OUTPUTS/openbind_a71ev2a_c2_elabs_1LSYIDY.sdf']

>  <name>  (38) 
P534988

>  <ref_pdb>  (38) 
A4472a

>  <subsites>  (38) 
None

>  <HIPPO Pose ID>  (38) 
534988

>  <ref_mols>  (38) 
A4472a

>  <HIPPO Compound ID>  (38) 
326954

>  <tags>  (38) 
openbind_a71ev2a_c2_elabs,syndirella_product,openbind_a71ev2a_c2_elabs_scored,BulkDock Fragalysis export,openbind_a71ev2a_c2_elabs_scored_top80percent,openbind_a71ev2a_c2_elabs_scored_top80percent_despaghettified,syndirella_placed

>  <smina_score_min>  (38) 
-6.817

$$$$
P534989
     RDKit          3D

 24 26  0  0  0  0  0  0  0  0999 V2000
   12.4769   14.5801   19.2345 C   0  0  0  0  0  0  0  0  0  0  0  0
   10.8244   14.8161   18.7966 S   0  0  0  0  0  0  0  0  0  0  0  0
   10.4722   13.6860   17.9875 O   0  0  0  0  0  0  0  0  0  0  0  0
   10.6584   16.1701   18.3310 O   0  0  0  0  0  0  0  0  0  0  0  0
   10.1000   14.7083   20.3096 N   0  0  0  0  0  0  0  0  0  0  0  0
    9.2456   15.8259   20.6510 C   0  0  0  0  0  0  0  0  0  0  0  0
    9.8349   16.6590   21.7394 C   0  0  0  0  0  0  0  0  0  0  0  0
   11.1404   16.1471   22.3252 C   0  0  0  0  0  0  0  0  0  0  0  0
   11.1593   14.6602   22.5748 C   0  0  1  0  0  0  0  0  0  0  0  0
   10.4101   14.3489   23.8567 C   0  0  0  0  0  0  0  0  0  0  0  0
   10.9508   14.2051   24.8814 O   0  0  0  0  0  0  0  0  0  0  0  0
    8.8990   14.3617   23.5114 N   0  0  0  0  0  0  0  0  0  0  0  0
    7.8521   14.1289   24.2647 N   0  0  0  0  0  0  0  0  0  0  0  0
    7.4459   12.8642   25.0538 C   0  0  0  0  0  0  0  0  0  0  0  0
    8.0155   11.8624   25.2183 O   0  0  0  0  0  0  0  0  0  0  0  0
    6.1023   13.2156   25.6447 C   0  0  2  0  0  0  0  0  0  0  0  0
    6.1470   14.5623   26.4765 C   0  0  0  0  0  0  0  0  0  0  0  0
    5.2644   14.3434   27.7402 C   0  0  0  0  0  0  0  0  0  0  0  0
    5.2350   12.8792   27.7908 C   0  0  0  0  0  0  0  0  0  0  0  0
    4.7308   11.7184   28.8748 S   0  0  0  0  0  0  0  0  0  0  0  0
    5.1884   10.4607   27.8343 N   0  0  0  0  0  0  0  0  0  0  0  0
    5.7234   10.8961   26.6964 N   0  0  0  0  0  0  0  0  0  0  0  0
    5.7040   12.2553   26.6741 C   0  0  0  0  0  0  0  0  0  0  0  0
   10.6711   13.8605   21.3828 C   0  0  0  0  0  0  0  0  0  0  0  0
  1  2  1  0
  2  3  2  0
  2  4  2  0
  2  5  1  0
  5  6  1  0
  6  7  1  0
  7  8  1  0
  8  9  1  0
  9 10  1  1
 10 11  2  0
 10 12  1  0
 12 13  1  0
 13 14  1  0
 14 15  2  0
 16 14  1  1
 16 17  1  0
 17 18  1  0
 18 19  1  0
 19 20  1  0
 20 21  1  0
 21 22  2  0
 22 23  1  0
  9 24  1  0
 24  5  1  0
 23 16  1  0
 23 19  2  0
M  END
>  <alias>  (39) 
None

>  <rmsd(smina/fragmenstein)>  (39) 
1.907

>  <smiles>  (39) 
CS(=O)(=O)N1CCC[C@@H](C(=O)NNC(=O)[C@@H]2CCc3snnc32)C1

>  <gnina_score>  (39) 
5.352

>  <inspiration_score>  (39) 
None

>  <energy_score>  (39) 
-27.367843

>  <distance_score>  (39) 
1.924083

>  <gnina_score_min>  (39) 
5.058

>  <inchikey>  (39) 
IGJWUFOVIFRHTA-RKDXNWHRSA-N

>  <exports>  (39) 
['/opt/xchem-fragalysis-2/maxwin/BulkDock/OUTPUTS/openbind_a71ev2a_c2_elabs_1LOUU54.sdf', '/opt/xchem-fragalysis-2/maxwin/BulkDock/OUTPUTS/openbind_a71ev2a_c2_elabs_1LSYIDY.sdf']

>  <name>  (39) 
P534989

>  <ref_pdb>  (39) 
A4472a

>  <subsites>  (39) 
None

>  <HIPPO Pose ID>  (39) 
534989

>  <ref_mols>  (39) 
A4472a

>  <HIPPO Compound ID>  (39) 
326966

>  <tags>  (39) 
openbind_a71ev2a_c2_elabs,syndirella_product,openbind_a71ev2a_c2_elabs_scored,BulkDock Fragalysis export,openbind_a71ev2a_c2_elabs_scored_top80percent,openbind_a71ev2a_c2_elabs_scored_top80percent_despaghettified,syndirella_placed

>  <smina_score_min>  (39) 
-5.836

$$$$
P534990
     RDKit          3D

 24 26  0  0  0  0  0  0  0  0999 V2000
    8.1368   13.9421   16.0463 C   0  0  0  0  0  0  0  0  0  0  0  0
    9.0835   13.9738   17.0903 O   0  0  0  0  0  0  0  0  0  0  0  0
    9.1548   15.1223   17.9311 C   0  0  0  0  0  0  0  0  0  0  0  0
   10.5905   15.1636   18.4732 C   0  0  0  0  0  0  0  0  0  0  0  0
   10.5500   14.7575   19.8490 N   0  0  0  0  0  0  0  0  0  0  0  0
   10.4328   15.5154   21.0366 C   0  0  0  0  0  0  0  0  0  0  0  0
   10.4176   16.6960   21.2099 O   0  0  0  0  0  0  0  0  0  0  0  0
   10.1938   14.5981   22.2287 C   0  0  1  0  0  0  0  0  0  0  0  0
   11.4046   13.8015   22.6213 C   0  0  0  0  0  0  0  0  0  0  0  0
   11.1153   13.2417   23.9977 C   0  0  0  0  0  0  0  0  0  0  0  0
   10.5577   14.3635   24.9204 C   0  0  2  0  0  0  0  0  0  0  0  0
   10.6533   13.8196   26.3543 C   0  0  0  0  0  0  0  0  0  0  0  0
    9.1007   14.9221   24.5815 N   0  0  0  0  0  0  0  0  0  0  0  0
    8.1244   13.8602   24.6599 C   0  0  0  0  0  0  0  0  0  0  0  0
    7.7209   13.1054   23.8139 O   0  0  0  0  0  0  0  0  0  0  0  0
    7.5367   13.8904   26.0639 C   0  0  1  0  0  0  0  0  0  0  0  0
    6.6425   15.1943   26.2105 C   0  0  0  0  0  0  0  0  0  0  0  0
    5.4371   14.8299   27.1311 C   0  0  0  0  0  0  0  0  0  0  0  0
    5.4752   13.3651   27.0586 C   0  0  0  0  0  0  0  0  0  0  0  0
    4.5919   12.1269   27.7427 S   0  0  0  0  0  0  0  0  0  0  0  0
    5.6408   10.9531   27.1077 N   0  0  0  0  0  0  0  0  0  0  0  0
    6.6783   11.4767   26.4531 N   0  0  0  0  0  0  0  0  0  0  0  0
    6.5650   12.8378   26.4200 C   0  0  0  0  0  0  0  0  0  0  0  0
    9.8241   15.4856   23.4167 C   0  0  0  0  0  0  0  0  0  0  0  0
  1  2  1  0
  2  3  1  0
  3  4  1  0
  4  5  1  0
  5  6  1  0
  6  7  2  0
  8  6  1  6
  8  9  1  0
  9 10  1  0
 10 11  1  0
 11 12  1  1
 11 13  1  0
 13 14  1  0
 14 15  2  0
 16 14  1  6
 16 17  1  0
 17 18  1  0
 18 19  1  0
 19 20  1  0
 20 21  1  0
 21 22  2  0
 22 23  1  0
 13 24  1  0
 24  8  1  0
 23 16  1  0
 23 19  2  0
M  END
>  <alias>  (40) 
None

>  <rmsd(smina/fragmenstein)>  (40) 
2.219

>  <smiles>  (40) 
COCCNC(=O)[C@H]1CC[C@H](C)N(C(=O)[C@H]2CCc3snnc32)C1

>  <gnina_score>  (40) 
5.724

>  <inspiration_score>  (40) 
None

>  <energy_score>  (40) 
-18.717564

>  <distance_score>  (40) 
1.57887

>  <gnina_score_min>  (40) 
5.356

>  <inchikey>  (40) 
OMHMGQXYPWKZLG-SRVKXCTJSA-N

>  <exports>  (40) 
['/opt/xchem-fragalysis-2/maxwin/BulkDock/OUTPUTS/openbind_a71ev2a_c2_elabs_1LOUU54.sdf', '/opt/xchem-fragalysis-2/maxwin/BulkDock/OUTPUTS/openbind_a71ev2a_c2_elabs_1LSYIDY.sdf']

>  <name>  (40) 
P534990

>  <ref_pdb>  (40) 
A4472a

>  <subsites>  (40) 
None

>  <HIPPO Pose ID>  (40) 
534990

>  <ref_mols>  (40) 
A4472a

>  <HIPPO Compound ID>  (40) 
326968

>  <tags>  (40) 
openbind_a71ev2a_c2_elabs,syndirella_product,openbind_a71ev2a_c2_elabs_scored,BulkDock Fragalysis export,openbind_a71ev2a_c2_elabs_scored_top80percent,openbind_a71ev2a_c2_elabs_scored_top80percent_despaghettified,syndirella_placed

>  <smina_score_min>  (40) 
-5.743

$$$$
P534991
     RDKit          3D

 26 29  0  0  0  0  0  0  0  0999 V2000
   10.9651   14.0090   21.0557 O   0  0  0  0  0  0  0  0  0  0  0  0
   10.6874   15.0082   21.6487 C   0  0  0  0  0  0  0  0  0  0  0  0
   10.0920   16.2331   21.1945 N   0  0  0  0  0  0  0  0  0  0  0  0
    9.5795   16.5902   19.9615 C   0  0  0  0  0  0  0  0  0  0  0  0
    9.5111   15.6466   18.9106 C   0  0  0  0  0  0  0  0  0  0  0  0
    8.7243   15.9057   17.7624 C   0  0  0  0  0  0  0  0  0  0  0  0
    8.1626   17.2507   17.6472 C   0  0  0  0  0  0  0  0  0  0  0  0
    7.4287   18.0863   15.7021 Br  0  0  0  0  0  0  0  0  0  0  0  0
    8.3665   18.2212   18.8121 C   0  0  0  0  0  0  0  0  0  0  0  0
    9.0452   17.8517   19.9321 N   0  0  0  0  0  0  0  0  0  0  0  0
   11.0348   15.0369   23.1481 C   0  0  2  0  0  0  0  0  0  0  0  0
   11.6269   13.7312   23.6541 C   0  0  0  0  0  0  0  0  0  0  0  0
   10.4851   12.8529   24.1217 C   0  0  0  0  0  0  0  0  0  0  0  0
    9.5138   13.6818   24.9847 C   0  0  0  0  0  0  0  0  0  0  0  0
    8.6200   14.7224   24.2956 N   0  0  0  0  0  0  0  0  0  0  0  0
    7.7742   14.0879   23.3335 C   0  0  0  0  0  0  0  0  0  0  0  0
    7.9455   13.8753   22.1598 O   0  0  0  0  0  0  0  0  0  0  0  0
    6.4067   13.7329   23.9126 C   0  0  2  0  0  0  0  0  0  0  0  0
    5.6073   15.0574   24.2496 C   0  0  0  0  0  0  0  0  0  0  0  0
    5.4640   15.1460   25.8046 C   0  0  0  0  0  0  0  0  0  0  0  0
    5.7847   13.7664   26.1884 C   0  0  0  0  0  0  0  0  0  0  0  0
    5.5565   12.8144   27.5412 S   0  0  0  0  0  0  0  0  0  0  0  0
    6.2390   11.4610   26.7729 N   0  0  0  0  0  0  0  0  0  0  0  0
    6.6124   11.7070   25.5171 N   0  0  0  0  0  0  0  0  0  0  0  0
    6.3367   13.0072   25.1944 C   0  0  0  0  0  0  0  0  0  0  0  0
    9.9265   15.4200   24.1335 C   0  0  0  0  0  0  0  0  0  0  0  0
  1  2  2  0
  2  3  1  0
  3  4  1  0
  4  5  2  0
  5  6  1  0
  6  7  2  0
  7  8  1  0
  7  9  1  0
  9 10  2  0
 11  2  1  6
 11 12  1  0
 12 13  1  0
 13 14  1  0
 14 15  1  0
 15 16  1  0
 16 17  2  0
 18 16  1  1
 18 19  1  0
 19 20  1  0
 20 21  1  0
 21 22  1  0
 22 23  1  0
 23 24  2  0
 24 25  1  0
 15 26  1  0
 10  4  1  0
 26 11  1  0
 25 18  1  0
 25 21  2  0
M  END
>  <alias>  (41) 
None

>  <rmsd(smina/fragmenstein)>  (41) 
2.143

>  <smiles>  (41) 
O=C(Nc1ccc(Br)cn1)[C@@H]1CCCN(C(=O)[C@@H]2CCc3snnc32)C1

>  <gnina_score>  (41) 
5.929

>  <inspiration_score>  (41) 
None

>  <energy_score>  (41) 
-11.149546

>  <distance_score>  (41) 
1.97514

>  <gnina_score_min>  (41) 
5.57

>  <inchikey>  (41) 
WCCFERKBUKOJDJ-ZYHUDNBSSA-N

>  <exports>  (41) 
['/opt/xchem-fragalysis-2/maxwin/BulkDock/OUTPUTS/openbind_a71ev2a_c2_elabs_1LOUU54.sdf', '/opt/xchem-fragalysis-2/maxwin/BulkDock/OUTPUTS/openbind_a71ev2a_c2_elabs_1LSYIDY.sdf']

>  <name>  (41) 
P534991

>  <ref_pdb>  (41) 
A4472a

>  <subsites>  (41) 
None

>  <HIPPO Pose ID>  (41) 
534991

>  <ref_mols>  (41) 
A4472a

>  <HIPPO Compound ID>  (41) 
326992

>  <tags>  (41) 
openbind_a71ev2a_c2_elabs,syndirella_product,openbind_a71ev2a_c2_elabs_scored,BulkDock Fragalysis export,openbind_a71ev2a_c2_elabs_scored_top80percent,openbind_a71ev2a_c2_elabs_scored_top80percent_despaghettified,syndirella_placed

>  <smina_score_min>  (41) 
-2.416

$$$$
P534997
     RDKit          3D

 26 27  0  0  0  0  0  0  0  0999 V2000
   11.6687   16.2020   18.4948 C   0  0  0  0  0  0  0  0  0  0  0  0
   10.4175   15.0582   18.5841 S   0  0  0  0  0  0  0  0  0  0  0  0
    9.2212   15.6789   18.0743 O   0  0  0  0  0  0  0  0  0  0  0  0
   10.9845   13.8545   18.0556 O   0  0  0  0  0  0  0  0  0  0  0  0
   10.2666   14.8719   20.2427 N   0  0  0  0  0  0  0  0  0  0  0  0
    9.3828   15.7566   20.9499 C   0  0  0  0  0  0  0  0  0  0  0  0
   10.1425   16.9972   21.3353 C   0  0  0  0  0  0  0  0  0  0  0  0
   11.5525   16.7316   21.8960 C   0  0  0  0  0  0  0  0  0  0  0  0
   12.0159   15.2837   22.0088 C   0  0  1  0  0  0  0  0  0  0  0  0
   11.8523   14.6542   23.3963 C   0  0  0  0  0  0  0  0  0  0  0  0
   12.6343   13.9441   23.8897 O   0  0  0  0  0  0  0  0  0  0  0  0
   10.4492   15.0854   23.8758 N   0  0  0  0  0  0  0  0  0  0  0  0
    9.7508   14.6989   24.9067 N   0  0  0  0  0  0  0  0  0  0  0  0
    8.2429   14.8585   25.2148 C   0  0  0  0  0  0  0  0  0  0  0  0
    7.4088   15.4266   24.6318 O   0  0  0  0  0  0  0  0  0  0  0  0
    7.9919   14.0187   26.4218 C   0  0  0  0  0  0  0  0  0  0  0  0
    7.2722   12.7187   26.1297 C   0  0  0  0  0  0  0  0  0  0  0  0
    6.0015   12.6247   26.7194 C   0  0  0  0  0  0  0  0  0  0  0  0
    5.2911   11.4422   26.6805 C   0  0  0  0  0  0  0  0  0  0  0  0
    4.1085   11.3878   27.3006 F   0  0  0  0  0  0  0  0  0  0  0  0
    5.8107   10.3335   26.0395 C   0  0  0  0  0  0  0  0  0  0  0  0
    5.1230    9.1869   26.0246 F   0  0  0  0  0  0  0  0  0  0  0  0
    7.0377   10.3988   25.4009 C   0  0  0  0  0  0  0  0  0  0  0  0
    7.7715   11.5898   25.4350 C   0  0  0  0  0  0  0  0  0  0  0  0
    9.4378   11.5003   24.5342 Br  0  0  0  0  0  0  0  0  0  0  0  0
   11.3797   14.3032   21.0224 C   0  0  0  0  0  0  0  0  0  0  0  0
  1  2  1  0
  2  3  2  0
  2  4  2  0
  2  5  1  0
  5  6  1  0
  6  7  1  0
  7  8  1  0
  8  9  1  0
  9 10  1  1
 10 11  2  0
 10 12  1  0
 12 13  1  0
 13 14  1  0
 14 15  2  0
 14 16  1  0
 16 17  1  0
 17 18  2  0
 18 19  1  0
 19 20  1  0
 19 21  2  0
 21 22  1  0
 21 23  1  0
 23 24  2  0
 24 25  1  0
  9 26  1  0
 26  5  1  0
 24 17  1  0
M  END
>  <alias>  (42) 
None

>  <rmsd(smina/fragmenstein)>  (42) 
1.109

>  <smiles>  (42) 
CS(=O)(=O)N1CCC[C@@H](C(=O)NNC(=O)Cc2cc(F)c(F)cc2Br)C1

>  <gnina_score>  (42) 
5.908

>  <inspiration_score>  (42) 
None

>  <energy_score>  (42) 
-3.805624

>  <distance_score>  (42) 
1.471003

>  <gnina_score_min>  (42) 
5.685

>  <inchikey>  (42) 
TZXLMZGBVFGANE-SECBINFHSA-N

>  <exports>  (42) 
['/opt/xchem-fragalysis-2/maxwin/BulkDock/OUTPUTS/openbind_a71ev2a_c2_elabs_1LOUU54.sdf', '/opt/xchem-fragalysis-2/maxwin/BulkDock/OUTPUTS/openbind_a71ev2a_c2_elabs_1LSYIDY.sdf']

>  <name>  (42) 
P534997

>  <ref_pdb>  (42) 
A4882a

>  <subsites>  (42) 
None

>  <HIPPO Pose ID>  (42) 
534997

>  <ref_mols>  (42) 
A4882a

>  <HIPPO Compound ID>  (42) 
317458

>  <tags>  (42) 
openbind_a71ev2a_c2_elabs,syndirella_product,openbind_a71ev2a_c2_elabs_scored,BulkDock Fragalysis export,openbind_a71ev2a_c2_elabs_scored_top80percent,openbind_a71ev2a_c2_elabs_scored_top80percent_despaghettified,syndirella_placed

>  <smina_score_min>  (42) 
-4.753

$$$$
P535200
     RDKit          3D

 23 26  0  0  0  0  0  0  0  0999 V2000
   10.5415   13.6810   18.1472 O   0  0  0  0  0  0  0  0  0  0  0  0
   10.3971   14.5617   18.9630 C   0  0  0  0  0  0  0  0  0  0  0  0
   10.6500   15.8543   18.7363 N   0  0  0  0  0  0  0  0  0  0  0  0
   10.1204   16.5362   19.7771 C   0  0  0  0  0  0  0  0  0  0  0  0
    9.7088   17.6842   19.7663 O   0  0  0  0  0  0  0  0  0  0  0  0
   10.1347   15.6011   20.9791 C   0  0  1  0  0  0  0  0  0  0  0  0
   11.5193   15.5335   21.5979 C   0  0  0  0  0  0  0  0  0  0  0  0
   11.3195   14.7381   22.8591 C   0  0  0  0  0  0  0  0  0  0  0  0
   10.1554   15.4007   23.5909 C   0  0  0  0  0  0  0  0  0  0  0  0
    8.6978   15.1659   23.2190 N   0  0  0  0  0  0  0  0  0  0  0  0
    8.3895   13.7892   23.2989 C   0  0  0  0  0  0  0  0  0  0  0  0
    8.4449   12.9252   22.4602 O   0  0  0  0  0  0  0  0  0  0  0  0
    8.0141   13.3499   24.7803 C   0  0  0  0  0  0  0  0  0  0  0  0
    8.9462   12.1031   25.0730 C   0  0  0  0  0  0  0  0  0  0  0  0
    8.5893   10.7443   24.9711 C   0  0  0  0  0  0  0  0  0  0  0  0
    9.7748   10.0558   24.8791 C   0  0  0  0  0  0  0  0  0  0  0  0
   10.8287   10.8999   25.0309 O   0  0  0  0  0  0  0  0  0  0  0  0
   10.3150   12.1478   25.1748 C   0  0  0  0  0  0  0  0  0  0  0  0
    6.4921   13.1197   25.0500 C   0  0  0  0  0  0  0  0  0  0  0  0
    6.7089   13.6496   26.4767 C   0  0  0  0  0  0  0  0  0  0  0  0
    7.9567   14.3804   25.9524 C   0  0  0  0  0  0  0  0  0  0  0  0
    9.0887   16.0299   22.0278 C   0  0  0  0  0  0  0  0  0  0  0  0
    9.9061   14.4004   20.2377 N   0  0  0  0  0  0  0  0  0  0  0  0
  1  2  2  0
  2  3  1  0
  3  4  1  0
  4  5  2  0
  4  6  1  0
  6  7  1  1
  7  8  1  0
  8  9  1  0
  9 10  1  0
 10 11  1  0
 11 12  2  0
 11 13  1  0
 13 14  1  0
 14 15  1  0
 15 16  2  0
 16 17  1  0
 17 18  1  0
 13 19  1  0
 19 20  1  0
 20 21  1  0
 10 22  1  0
  6 23  1  0
 23  2  1  0
 22  6  1  0
 21 13  1  0
 18 14  2  0
M  END
>  <alias>  (43) 
None

>  <rmsd(smina/fragmenstein)>  (43) 
0.653

>  <smiles>  (43) 
O=C1NC(=O)[C@]2(CCCN(C(=O)C3(c4ccoc4)CCC3)C2)N1

>  <gnina_score>  (43) 
6.17

>  <inspiration_score>  (43) 
None

>  <energy_score>  (43) 
-11.113841

>  <distance_score>  (43) 
0.958674

>  <gnina_score_min>  (43) 
6.141

>  <inchikey>  (43) 
XPRYZHUNKCTIAQ-MRXNPFEDSA-N

>  <exports>  (43) 
['/opt/xchem-fragalysis-2/maxwin/BulkDock/OUTPUTS/openbind_a71ev2a_c2_elabs_1LOUU54.sdf', '/opt/xchem-fragalysis-2/maxwin/BulkDock/OUTPUTS/openbind_a71ev2a_c2_elabs_1LSYIDY.sdf']

>  <name>  (43) 
P535200

>  <ref_pdb>  (43) 
A4575a

>  <subsites>  (43) 
None

>  <HIPPO Pose ID>  (43) 
535200

>  <ref_mols>  (43) 
A4575a

>  <HIPPO Compound ID>  (43) 
326294

>  <tags>  (43) 
openbind_a71ev2a_c2_elabs,syndirella_product,openbind_a71ev2a_c2_elabs_scored,BulkDock Fragalysis export,openbind_a71ev2a_c2_elabs_scored_top80percent,openbind_a71ev2a_c2_elabs_scored_6plus,openbind_a71ev2a_c2_elabs_scored_top80percent_despaghettified,syndirella_placed

>  <smina_score_min>  (43) 
-7.568

$$$$
P535201
     RDKit          3D

 25 27  0  0  0  0  0  0  0  0999 V2000
   12.6392   14.5261   19.8324 C   0  0  0  0  0  0  0  0  0  0  0  0
   11.3600   14.9110   18.7635 S   0  0  0  0  0  0  0  0  0  0  0  0
   10.6143   13.7487   18.3746 O   0  0  0  0  0  0  0  0  0  0  0  0
   11.7957   15.9121   17.8303 O   0  0  0  0  0  0  0  0  0  0  0  0
   10.4935   15.6913   19.9032 N   0  0  0  0  0  0  0  0  0  0  0  0
    9.3174   16.2305   19.3530 C   0  0  0  0  0  0  0  0  0  0  0  0
    9.2108   17.6212   19.9489 C   0  0  0  0  0  0  0  0  0  0  0  0
    8.9510   17.4172   21.4171 C   0  0  0  0  0  0  0  0  0  0  0  0
    9.9939   16.4513   22.0517 C   0  0  1  0  0  0  0  0  0  0  0  0
    9.7326   15.8980   23.4230 C   0  0  0  0  0  0  0  0  0  0  0  0
   10.5490   15.8884   24.2574 O   0  0  0  0  0  0  0  0  0  0  0  0
    8.3020   15.3077   23.4126 N   0  0  0  0  0  0  0  0  0  0  0  0
    7.6780   14.5751   24.3015 N   0  0  0  0  0  0  0  0  0  0  0  0
    7.5897   14.7188   25.8327 C   0  0  0  0  0  0  0  0  0  0  0  0
    7.9940   15.5557   26.5385 O   0  0  0  0  0  0  0  0  0  0  0  0
    6.8974   13.3856   26.3050 C   0  0  0  0  0  0  0  0  0  0  0  0
    7.8188   12.1611   25.8335 C   0  0  0  0  0  0  0  0  0  0  0  0
    7.4321   10.8307   25.5885 C   0  0  0  0  0  0  0  0  0  0  0  0
    8.5425   10.2065   25.0647 C   0  0  0  0  0  0  0  0  0  0  0  0
    9.5961   11.0541   25.0137 O   0  0  0  0  0  0  0  0  0  0  0  0
    9.1557   12.2421   25.4925 C   0  0  0  0  0  0  0  0  0  0  0  0
    6.4269   13.3601   27.7745 C   0  0  0  0  0  0  0  0  0  0  0  0
    5.1090   12.7288   27.3107 C   0  0  0  0  0  0  0  0  0  0  0  0
    5.3976   13.2531   25.9003 C   0  0  0  0  0  0  0  0  0  0  0  0
   10.2313   15.1768   21.2315 C   0  0  0  0  0  0  0  0  0  0  0  0
  1  2  1  0
  2  3  2  0
  2  4  2  0
  2  5  1  0
  5  6  1  0
  6  7  1  0
  7  8  1  0
  8  9  1  0
  9 10  1  1
 10 11  2  0
 10 12  1  0
 12 13  1  0
 13 14  1  0
 14 15  2  0
 14 16  1  0
 16 17  1  0
 17 18  1  0
 18 19  2  0
 19 20  1  0
 20 21  1  0
 16 22  1  0
 22 23  1  0
 23 24  1  0
  9 25  1  0
 25  5  1  0
 24 16  1  0
 21 17  2  0
M  END
>  <alias>  (44) 
None

>  <rmsd(smina/fragmenstein)>  (44) 
0.403

>  <smiles>  (44) 
CS(=O)(=O)N1CCC[C@@H](C(=O)NNC(=O)C2(c3ccoc3)CCC2)C1

>  <gnina_score>  (44) 
5.7

>  <inspiration_score>  (44) 
None

>  <energy_score>  (44) 
-2.014641

>  <distance_score>  (44) 
1.843089

>  <gnina_score_min>  (44) 
5.755

>  <inchikey>  (44) 
ROZWQNKJDYAMTF-GFCCVEGCSA-N

>  <exports>  (44) 
['/opt/xchem-fragalysis-2/maxwin/BulkDock/OUTPUTS/openbind_a71ev2a_c2_elabs_1LOUU54.sdf', '/opt/xchem-fragalysis-2/maxwin/BulkDock/OUTPUTS/openbind_a71ev2a_c2_elabs_1LSYIDY.sdf']

>  <name>  (44) 
P535201

>  <ref_pdb>  (44) 
A4575a

>  <subsites>  (44) 
None

>  <HIPPO Pose ID>  (44) 
535201

>  <ref_mols>  (44) 
A4575a

>  <HIPPO Compound ID>  (44) 
326315

>  <tags>  (44) 
openbind_a71ev2a_c2_elabs,syndirella_product,openbind_a71ev2a_c2_elabs_scored,BulkDock Fragalysis export,openbind_a71ev2a_c2_elabs_scored_top80percent,openbind_a71ev2a_c2_elabs_scored_top80percent_despaghettified,syndirella_placed

>  <smina_score_min>  (44) 
-1.631

$$$$
P535204
     RDKit          3D

 24 27  0  0  0  0  0  0  0  0999 V2000
    9.5534    9.3847   23.8287 C   0  0  0  0  0  0  0  0  0  0  0  0
    8.3264    9.2312   24.5304 O   0  0  0  0  0  0  0  0  0  0  0  0
    7.8058   10.4241   24.9928 C   0  0  0  0  0  0  0  0  0  0  0  0
    6.6328   10.3140   25.7395 C   0  0  0  0  0  0  0  0  0  0  0  0
    6.0561   11.4556   26.2823 C   0  0  0  0  0  0  0  0  0  0  0  0
    6.6514   12.6605   25.9868 C   0  0  0  0  0  0  0  0  0  0  0  0
    7.7858   12.6849   25.1814 C   0  0  0  0  0  0  0  0  0  0  0  0
    8.4260   11.5924   24.7217 N   0  0  0  0  0  0  0  0  0  0  0  0
    8.2642   14.0975   24.9872 C   0  0  1  0  0  0  0  0  0  0  0  0
    8.5054   14.4858   23.5312 C   0  0  0  0  0  0  0  0  0  0  0  0
    7.9156   13.9669   22.6192 O   0  0  0  0  0  0  0  0  0  0  0  0
    9.4378   15.5824   23.5389 N   0  0  0  0  0  0  0  0  0  0  0  0
   10.8763   15.0521   23.3859 C   0  0  0  0  0  0  0  0  0  0  0  0
   11.2520   14.2022   22.1376 C   0  0  0  0  0  0  0  0  0  0  0  0
   11.3239   15.1714   21.0010 C   0  0  1  0  0  0  0  0  0  0  0  0
   11.3787   14.8647   19.5336 C   0  0  0  0  0  0  0  0  0  0  0  0
   12.0268   14.0006   18.9845 O   0  0  0  0  0  0  0  0  0  0  0  0
   10.6835   15.8508   18.8982 N   0  0  0  0  0  0  0  0  0  0  0  0
   10.1571   16.7079   19.8191 C   0  0  0  0  0  0  0  0  0  0  0  0
    9.8975   17.8828   19.6869 O   0  0  0  0  0  0  0  0  0  0  0  0
   10.0092   15.8912   21.0516 C   0  0  2  0  0  0  0  0  0  0  0  0
    9.8902   16.5128   22.4158 C   0  0  0  0  0  0  0  0  0  0  0  0
    7.0725   14.9222   25.5236 C   0  0  0  0  0  0  0  0  0  0  0  0
    6.2741   14.0189   26.4664 C   0  0  0  0  0  0  0  0  0  0  0  0
  1  2  1  0
  2  3  1  0
  3  4  2  0
  4  5  1  0
  5  6  2  0
  6  7  1  0
  7  8  2  0
  7  9  1  0
  9 10  1  6
 10 11  2  0
 10 12  1  0
 12 13  1  0
 13 14  1  0
 15 14  1  1
 15 16  1  0
 16 17  2  0
 16 18  1  0
 18 19  1  0
 19 20  2  0
 19 21  1  0
 21 22  1  1
  9 23  1  0
 23 24  1  0
  8  3  1  0
 22 12  1  0
 24  6  1  0
 21 15  1  0
M  END
>  <alias>  (45) 
None

>  <rmsd(smina/fragmenstein)>  (45) 
0.543

>  <smiles>  (45) 
COc1ccc2c(n1)[C@@H](C(=O)N1CC[C@H]3C(=O)NC(=O)[C@@H]3C1)CC2

>  <gnina_score>  (45) 
5.883

>  <inspiration_score>  (45) 
None

>  <energy_score>  (45) 
-46.725914

>  <distance_score>  (45) 
0.909842

>  <gnina_score_min>  (45) 
5.858

>  <inchikey>  (45) 
DYZUJZQGPGOPDZ-GRYCIOLGSA-N

>  <exports>  (45) 
['/opt/xchem-fragalysis-2/maxwin/BulkDock/OUTPUTS/openbind_a71ev2a_c2_elabs_1LOUU54.sdf', '/opt/xchem-fragalysis-2/maxwin/BulkDock/OUTPUTS/openbind_a71ev2a_c2_elabs_1LSYIDY.sdf']

>  <name>  (45) 
P535204

>  <ref_pdb>  (45) 
A3954a

>  <subsites>  (45) 
None

>  <HIPPO Pose ID>  (45) 
535204

>  <ref_mols>  (45) 
A3954a

>  <HIPPO Compound ID>  (45) 
367113

>  <tags>  (45) 
openbind_a71ev2a_c2_elabs,syndirella_product,openbind_a71ev2a_c2_elabs_scored,BulkDock Fragalysis export,openbind_a71ev2a_c2_elabs_scored_top80percent,openbind_a71ev2a_c2_elabs_scored_top80percent_despaghettified,syndirella_placed

>  <smina_score_min>  (45) 
-8.003

$$$$
P535927
     RDKit          3D

 28 29  0  0  0  0  0  0  0  0999 V2000
    4.7404   14.0162   25.3176 C   0  0  0  0  0  0  0  0  0  0  0  0
    5.3132   12.9333   26.6052 S   0  0  0  0  0  0  0  0  0  0  0  0
    6.0020   13.7049   27.6244 O   0  0  0  0  0  0  0  0  0  0  0  0
    4.2062   12.0793   26.9956 O   0  0  0  0  0  0  0  0  0  0  0  0
    6.5388   11.8855   25.8430 C   0  0  0  0  0  0  0  0  0  0  0  0
    6.2475   10.5350   25.6752 C   0  0  0  0  0  0  0  0  0  0  0  0
    7.1491    9.6953   25.0245 C   0  0  0  0  0  0  0  0  0  0  0  0
    8.3742   10.1703   24.6000 C   0  0  0  0  0  0  0  0  0  0  0  0
    9.5594    9.0291   23.6896 Br  0  0  0  0  0  0  0  0  0  0  0  0
    8.7118   11.4901   24.8428 C   0  0  0  0  0  0  0  0  0  0  0  0
    7.7893   12.3710   25.4562 C   0  0  0  0  0  0  0  0  0  0  0  0
    8.1748   13.8102   25.6037 C   0  0  0  0  0  0  0  0  0  0  0  0
    8.3950   14.3711   24.2254 C   0  0  0  0  0  0  0  0  0  0  0  0
    7.5511   14.6354   23.4694 O   0  0  0  0  0  0  0  0  0  0  0  0
    9.9236   14.4728   24.0895 N   0  0  0  0  0  0  0  0  0  0  0  0
   10.6654   14.7996   23.0629 N   0  0  0  0  0  0  0  0  0  0  0  0
   12.1812   14.7784   22.8879 C   0  0  0  0  0  0  0  0  0  0  0  0
   13.0158   14.3949   23.5985 O   0  0  0  0  0  0  0  0  0  0  0  0
   12.4743   15.4951   21.5596 C   0  0  1  0  0  0  0  0  0  0  0  0
   12.3067   14.7115   20.2582 C   0  0  0  0  0  0  0  0  0  0  0  0
   10.9575   14.8213   19.5765 C   0  0  0  0  0  0  0  0  0  0  0  0
   10.4303   16.2226   19.5539 C   0  0  0  0  0  0  0  0  0  0  0  0
   10.4317   16.6037   20.9615 N   0  0  0  0  0  0  0  0  0  0  0  0
    9.1587   17.4180   21.6558 S   0  0  0  0  0  0  0  0  0  0  0  0
    9.4315   19.0415   20.9566 C   0  0  0  0  0  0  0  0  0  0  0  0
    7.9505   16.7821   21.2081 O   0  0  0  0  0  0  0  0  0  0  0  0
    9.4351   17.3875   23.0762 O   0  0  0  0  0  0  0  0  0  0  0  0
   11.7653   16.8203   21.5220 C   0  0  0  0  0  0  0  0  0  0  0  0
  1  2  1  0
  2  3  2  0
  2  4  2  0
  2  5  1  0
  5  6  2  0
  6  7  1  0
  7  8  2  0
  8  9  1  0
  8 10  1  0
 10 11  2  0
 11 12  1  0
 12 13  1  0
 13 14  2  0
 13 15  1  0
 15 16  1  0
 16 17  1  0
 17 18  2  0
 19 17  1  1
 19 20  1  0
 20 21  1  0
 21 22  1  0
 22 23  1  0
 23 24  1  0
 24 25  1  0
 24 26  2  0
 24 27  2  0
 23 28  1  0
 11  5  1  0
 28 19  1  0
M  END
>  <alias>  (46) 
None

>  <rmsd(smina/fragmenstein)>  (46) 
0.496

>  <smiles>  (46) 
CS(=O)(=O)c1ccc(Br)cc1CC(=O)NNC(=O)[C@H]1CCCN(S(C)(=O)=O)C1

>  <gnina_score>  (46) 
6.035

>  <inspiration_score>  (46) 
None

>  <energy_score>  (46) 
-31.073212

>  <distance_score>  (46) 
1.29632

>  <gnina_score_min>  (46) 
5.975

>  <inchikey>  (46) 
LQCGBAAGVVMBNB-NSHDSACASA-N

>  <exports>  (46) 
['/opt/xchem-fragalysis-2/maxwin/BulkDock/OUTPUTS/openbind_a71ev2a_c2_elabs_1LOUU54.sdf', '/opt/xchem-fragalysis-2/maxwin/BulkDock/OUTPUTS/openbind_a71ev2a_c2_elabs_1LSYIDY.sdf']

>  <name>  (46) 
P535927

>  <ref_pdb>  (46) 
A4544a

>  <subsites>  (46) 
None

>  <HIPPO Pose ID>  (46) 
535927

>  <ref_mols>  (46) 
A4544a

>  <HIPPO Compound ID>  (46) 
337521

>  <tags>  (46) 
openbind_a71ev2a_c2_elabs,syndirella_product,openbind_a71ev2a_c2_elabs_scored,BulkDock Fragalysis export,openbind_a71ev2a_c2_elabs_scored_top80percent,openbind_a71ev2a_c2_elabs_scored_top80percent_despaghettified,syndirella_placed

>  <smina_score_min>  (46) 
-4.501

$$$$
P537144
     RDKit          3D

 22 24  0  0  0  0  0  0  0  0999 V2000
   12.8590   14.1138   23.5351 C   0  0  0  0  0  0  0  0  0  0  0  0
   11.6989   14.6411   22.7207 C   0  0  1  0  0  0  0  0  0  0  0  0
   12.0670   14.7882   21.2463 C   0  0  0  0  0  0  0  0  0  0  0  0
   11.0545   15.4799   20.4864 N   0  0  0  0  0  0  0  0  0  0  0  0
   10.7722   15.3690   19.1663 C   0  0  0  0  0  0  0  0  0  0  0  0
    9.8423   16.2403   18.8497 N   0  0  0  0  0  0  0  0  0  0  0  0
    9.6254   16.9087   20.0215 C   0  0  0  0  0  0  0  0  0  0  0  0
   10.3366   16.4590   21.0497 N   0  0  0  0  0  0  0  0  0  0  0  0
   10.6491   13.7183   23.0215 N   0  0  0  0  0  0  0  0  0  0  0  0
    9.6157   13.7229   24.1454 C   0  0  0  0  0  0  0  0  0  0  0  0
    9.3979   14.5169   24.9666 O   0  0  0  0  0  0  0  0  0  0  0  0
    8.9323   12.4267   24.1102 C   0  0  0  0  0  0  0  0  0  0  0  0
    9.4232   11.4205   23.3556 N   0  0  0  0  0  0  0  0  0  0  0  0
    8.7703   10.3346   23.7945 N   0  0  0  0  0  0  0  0  0  0  0  0
    9.1574    9.0458   23.2699 C   0  0  0  0  0  0  0  0  0  0  0  0
    7.8336   10.6151   24.7569 C   0  0  0  0  0  0  0  0  0  0  0  0
    6.9651    9.8107   25.4915 C   0  0  0  0  0  0  0  0  0  0  0  0
    6.1460   10.4155   26.4466 C   0  0  0  0  0  0  0  0  0  0  0  0
    6.1882   11.7868   26.6422 C   0  0  0  0  0  0  0  0  0  0  0  0
    5.4018   12.3360   27.5776 F   0  0  0  0  0  0  0  0  0  0  0  0
    7.0538   12.5952   25.9139 C   0  0  0  0  0  0  0  0  0  0  0  0
    7.8893   11.9909   24.9557 C   0  0  0  0  0  0  0  0  0  0  0  0
  2  1  1  1
  2  3  1  0
  3  4  1  0
  4  5  1  0
  5  6  2  0
  6  7  1  0
  7  8  2  0
  2  9  1  0
  9 10  1  0
 10 11  2  0
 10 12  1  0
 12 13  2  0
 13 14  1  0
 14 15  1  0
 14 16  1  0
 16 17  2  0
 17 18  1  0
 18 19  2  0
 19 20  1  0
 19 21  1  0
 21 22  2  0
  8  4  1  0
 22 12  1  0
 22 16  1  0
M  END
>  <alias>  (47) 
None

>  <rmsd(smina/fragmenstein)>  (47) 
0.299

>  <smiles>  (47) 
C[C@@H](Cn1cncn1)NC(=O)c1nn(C)c2ccc(F)cc12

>  <gnina_score>  (47) 
6.148

>  <inspiration_score>  (47) 
None

>  <energy_score>  (47) 
-25.508692

>  <distance_score>  (47) 
0.431613

>  <gnina_score_min>  (47) 
6.105

>  <inchikey>  (47) 
NZNSFRSFUMMPLN-VIFPVBQESA-N

>  <exports>  (47) 
['/opt/xchem-fragalysis-2/maxwin/BulkDock/OUTPUTS/openbind_a71ev2a_c2_elabs_1LOUU54.sdf', '/opt/xchem-fragalysis-2/maxwin/BulkDock/OUTPUTS/openbind_a71ev2a_c2_elabs_1LSYIDY.sdf']

>  <name>  (47) 
P537144

>  <ref_pdb>  (47) 
A3181a

>  <subsites>  (47) 
None

>  <HIPPO Pose ID>  (47) 
537144

>  <ref_mols>  (47) 
A3181a

>  <HIPPO Compound ID>  (47) 
299790

>  <tags>  (47) 
openbind_a71ev2a_c2_elabs,syndirella_product,openbind_a71ev2a_c2_elabs_scored,BulkDock Fragalysis export,openbind_a71ev2a_c2_elabs_scored_top80percent,openbind_a71ev2a_c2_elabs_scored_6plus,openbind_a71ev2a_c2_elabs_scored_top80percent_despaghettified,syndirella_placed,openbind_a71ev2a_c1_elabs_filtered

>  <smina_score_min>  (47) 
-7.345

$$$$
P537148
     RDKit          3D

 22 25  0  0  0  0  0  0  0  0999 V2000
    9.3397    9.0652   23.4363 C   0  0  0  0  0  0  0  0  0  0  0  0
    8.9888   10.3686   23.9524 N   0  0  0  0  0  0  0  0  0  0  0  0
    9.7259   11.4172   23.5673 N   0  0  0  0  0  0  0  0  0  0  0  0
    9.1517   12.4862   24.1548 C   0  0  0  0  0  0  0  0  0  0  0  0
    9.5997   13.8652   23.8579 C   0  0  0  0  0  0  0  0  0  0  0  0
    8.8364   14.7614   23.8910 O   0  0  0  0  0  0  0  0  0  0  0  0
   11.0539   13.8341   23.4465 N   0  0  0  0  0  0  0  0  0  0  0  0
   11.2060   13.5412   21.9526 C   0  0  0  0  0  0  0  0  0  0  0  0
   11.8956   14.7793   21.5837 C   0  0  0  0  0  0  0  0  0  0  0  0
   11.0065   15.6296   20.8024 N   0  0  0  0  0  0  0  0  0  0  0  0
   10.8504   15.5384   19.4511 C   0  0  0  0  0  0  0  0  0  0  0  0
    9.9224   16.3835   19.0657 N   0  0  0  0  0  0  0  0  0  0  0  0
    9.5486   16.9831   20.2364 C   0  0  0  0  0  0  0  0  0  0  0  0
   10.1508   16.5021   21.3207 N   0  0  0  0  0  0  0  0  0  0  0  0
   11.9917   14.9542   23.0520 C   0  0  0  0  0  0  0  0  0  0  0  0
    8.0582   12.0870   24.9672 C   0  0  0  0  0  0  0  0  0  0  0  0
    7.1328   12.7458   25.7984 C   0  0  0  0  0  0  0  0  0  0  0  0
    6.2139   11.9772   26.5081 C   0  0  0  0  0  0  0  0  0  0  0  0
    5.3563   12.5798   27.3427 F   0  0  0  0  0  0  0  0  0  0  0  0
    6.1752   10.5956   26.3877 C   0  0  0  0  0  0  0  0  0  0  0  0
    7.0490    9.9352   25.5233 C   0  0  0  0  0  0  0  0  0  0  0  0
    7.9942   10.6998   24.8357 C   0  0  0  0  0  0  0  0  0  0  0  0
  1  2  1  0
  2  3  1  0
  3  4  2  0
  4  5  1  0
  5  6  2  0
  5  7  1  0
  7  8  1  0
  8  9  1  0
  9 10  1  0
 10 11  1  0
 11 12  2  0
 12 13  1  0
 13 14  2  0
  9 15  1  0
  4 16  1  0
 16 17  2  0
 17 18  1  0
 18 19  1  0
 18 20  2  0
 20 21  1  0
 21 22  2  0
 22  2  1  0
 15  7  1  0
 22 16  1  0
 14 10  1  0
M  END
>  <alias>  (48) 
None

>  <rmsd(smina/fragmenstein)>  (48) 
0.192

>  <smiles>  (48) 
Cn1nc(C(=O)N2CC(n3cncn3)C2)c2cc(F)ccc21

>  <gnina_score>  (48) 
5.963

>  <inspiration_score>  (48) 
None

>  <energy_score>  (48) 
-3.506715

>  <distance_score>  (48) 
0.569078

>  <gnina_score_min>  (48) 
5.999

>  <inchikey>  (48) 
KAUTUNFKTUEHRF-UHFFFAOYSA-N

>  <exports>  (48) 
['/opt/xchem-fragalysis-2/maxwin/BulkDock/OUTPUTS/openbind_a71ev2a_c2_elabs_1LOUU54.sdf', '/opt/xchem-fragalysis-2/maxwin/BulkDock/OUTPUTS/openbind_a71ev2a_c2_elabs_1LSYIDY.sdf']

>  <name>  (48) 
P537148

>  <ref_pdb>  (48) 
A3181a

>  <subsites>  (48) 
None

>  <HIPPO Pose ID>  (48) 
537148

>  <ref_mols>  (48) 
A3181a

>  <HIPPO Compound ID>  (48) 
299793

>  <tags>  (48) 
openbind_a71ev2a_c2_elabs,syndirella_product,openbind_a71ev2a_c2_elabs_scored,BulkDock Fragalysis export,openbind_a71ev2a_c2_elabs_scored_top80percent,openbind_a71ev2a_c2_elabs_scored_top80percent_despaghettified,syndirella_placed,openbind_a71ev2a_c1_elabs_filtered

>  <smina_score_min>  (48) 
-7.942

$$$$
P537149
     RDKit          3D

 22 24  0  0  0  0  0  0  0  0999 V2000
    9.2970    9.0017   23.1863 C   0  0  0  0  0  0  0  0  0  0  0  0
    9.0262   10.3139   23.7279 N   0  0  0  0  0  0  0  0  0  0  0  0
    9.7954   11.3427   23.3325 N   0  0  0  0  0  0  0  0  0  0  0  0
    9.3483   12.3939   24.0467 C   0  0  0  0  0  0  0  0  0  0  0  0
   10.0546   13.6892   24.0035 C   0  0  0  0  0  0  0  0  0  0  0  0
    9.7798   14.5561   24.7316 O   0  0  0  0  0  0  0  0  0  0  0  0
   11.1413   13.6041   22.9226 N   0  0  0  0  0  0  0  0  0  0  0  0
   12.1812   14.5288   22.5706 C   0  0  0  0  0  0  0  0  0  0  0  0
   12.3801   14.7108   21.0736 C   0  0  0  0  0  0  0  0  0  0  0  0
   11.2736   15.3612   20.4190 N   0  0  0  0  0  0  0  0  0  0  0  0
   10.8656   15.2264   19.1338 C   0  0  0  0  0  0  0  0  0  0  0  0
    9.9477   16.1268   18.8715 N   0  0  0  0  0  0  0  0  0  0  0  0
    9.8720   16.8357   20.0377 C   0  0  0  0  0  0  0  0  0  0  0  0
    8.9400   18.4493   20.1921 Br  0  0  0  0  0  0  0  0  0  0  0  0
   10.6368   16.3676   21.0216 N   0  0  0  0  0  0  0  0  0  0  0  0
    8.2306   12.0368   24.8473 C   0  0  0  0  0  0  0  0  0  0  0  0
    7.3733   12.7077   25.7413 C   0  0  0  0  0  0  0  0  0  0  0  0
    6.4228   11.9649   26.4384 C   0  0  0  0  0  0  0  0  0  0  0  0
    5.6279   12.5802   27.3245 F   0  0  0  0  0  0  0  0  0  0  0  0
    6.3055   10.5936   26.2664 C   0  0  0  0  0  0  0  0  0  0  0  0
    7.1272    9.9215   25.3601 C   0  0  0  0  0  0  0  0  0  0  0  0
    8.0806   10.6646   24.6585 C   0  0  0  0  0  0  0  0  0  0  0  0
  1  2  1  0
  2  3  1  0
  3  4  2  0
  4  5  1  0
  5  6  2  0
  5  7  1  0
  7  8  1  0
  8  9  1  0
  9 10  1  0
 10 11  1  0
 11 12  2  0
 12 13  1  0
 13 14  1  0
 13 15  2  0
  4 16  1  0
 16 17  2  0
 17 18  1  0
 18 19  1  0
 18 20  2  0
 20 21  1  0
 21 22  2  0
 22  2  1  0
 15 10  1  0
 22 16  1  0
M  END
>  <alias>  (49) 
None

>  <rmsd(smina/fragmenstein)>  (49) 
0.125

>  <smiles>  (49) 
Cn1nc(C(=O)NCCn2cnc(Br)n2)c2cc(F)ccc21

>  <gnina_score>  (49) 
6.325

>  <inspiration_score>  (49) 
None

>  <energy_score>  (49) 
-7.577501

>  <distance_score>  (49) 
0.234605

>  <gnina_score_min>  (49) 
6.331

>  <inchikey>  (49) 
CVWBZYGDQLKTJC-UHFFFAOYSA-N

>  <exports>  (49) 
['/opt/xchem-fragalysis-2/maxwin/BulkDock/OUTPUTS/openbind_a71ev2a_c2_elabs_1LOUU54.sdf', '/opt/xchem-fragalysis-2/maxwin/BulkDock/OUTPUTS/openbind_a71ev2a_c2_elabs_1LSYIDY.sdf']

>  <name>  (49) 
P537149

>  <ref_pdb>  (49) 
A3181a

>  <subsites>  (49) 
None

>  <HIPPO Pose ID>  (49) 
537149

>  <ref_mols>  (49) 
A3181a

>  <HIPPO Compound ID>  (49) 
299794

>  <tags>  (49) 
openbind_a71ev2a_c2_elabs,syndirella_product,openbind_a71ev2a_c2_elabs_scored,BulkDock Fragalysis export,openbind_a71ev2a_c2_elabs_scored_top80percent,openbind_a71ev2a_c2_elabs_scored_6plus,openbind_a71ev2a_c2_elabs_scored_top80percent_despaghettified,syndirella_placed,openbind_a71ev2a_c1_elabs_filtered

>  <smina_score_min>  (49) 
-7.843

$$$$
P537160
     RDKit          3D

 23 26  0  0  0  0  0  0  0  0999 V2000
    9.3047    9.0406   23.4378 C   0  0  0  0  0  0  0  0  0  0  0  0
    8.9439   10.3369   23.9633 N   0  0  0  0  0  0  0  0  0  0  0  0
    9.6783   11.3919   23.5904 N   0  0  0  0  0  0  0  0  0  0  0  0
    9.0978   12.4486   24.1919 C   0  0  0  0  0  0  0  0  0  0  0  0
    9.5461   13.8295   23.9367 C   0  0  0  0  0  0  0  0  0  0  0  0
    8.7835   14.7252   23.9830 O   0  0  0  0  0  0  0  0  0  0  0  0
   11.0038   13.8070   23.5429 N   0  0  0  0  0  0  0  0  0  0  0  0
   11.9422   14.9293   23.1902 C   0  0  0  0  0  0  0  0  0  0  0  0
   11.7815   14.8481   21.7207 C   0  0  0  0  0  0  0  0  0  0  0  0
   10.8192   15.7019   21.0287 N   0  0  0  0  0  0  0  0  0  0  0  0
    9.8507   16.3903   21.6138 N   0  0  0  0  0  0  0  0  0  0  0  0
    9.3002   17.0344   20.5865 C   0  0  0  0  0  0  0  0  0  0  0  0
    9.7659   16.6561   19.3654 N   0  0  0  0  0  0  0  0  0  0  0  0
   10.6941   15.7855   19.6744 C   0  0  0  0  0  0  0  0  0  0  0  0
   11.6985   14.8383   18.4148 Br  0  0  0  0  0  0  0  0  0  0  0  0
   11.1755   13.5498   22.0328 C   0  0  0  0  0  0  0  0  0  0  0  0
    8.0098   12.0400   25.0019 C   0  0  0  0  0  0  0  0  0  0  0  0
    7.0898   12.6892   25.8465 C   0  0  0  0  0  0  0  0  0  0  0  0
    6.1760   11.9123   26.5518 C   0  0  0  0  0  0  0  0  0  0  0  0
    5.3240   12.5035   27.4003 F   0  0  0  0  0  0  0  0  0  0  0  0
    6.1386   10.5332   26.4132 C   0  0  0  0  0  0  0  0  0  0  0  0
    7.0088    9.8855   25.5354 C   0  0  0  0  0  0  0  0  0  0  0  0
    7.9511   10.6559   24.8537 C   0  0  0  0  0  0  0  0  0  0  0  0
  1  2  1  0
  2  3  1  0
  3  4  2  0
  4  5  1  0
  5  6  2  0
  5  7  1  0
  7  8  1  0
  8  9  1  0
  9 10  1  0
 10 11  1  0
 11 12  2  0
 12 13  1  0
 13 14  2  0
 14 15  1  0
  9 16  1  0
  4 17  1  0
 17 18  2  0
 18 19  1  0
 19 20  1  0
 19 21  2  0
 21 22  1  0
 22 23  2  0
 23  2  1  0
 16  7  1  0
 23 17  1  0
 14 10  1  0
M  END
>  <alias>  (50) 
None

>  <rmsd(smina/fragmenstein)>  (50) 
0.16

>  <smiles>  (50) 
Cn1nc(C(=O)N2CC(n3ncnc3Br)C2)c2cc(F)ccc21

>  <gnina_score>  (50) 
6.139

>  <inspiration_score>  (50) 
None

>  <energy_score>  (50) 
-7.71617

>  <distance_score>  (50) 
0.675791

>  <gnina_score_min>  (50) 
6.134

>  <inchikey>  (50) 
XKVOTHLLZIIZSH-UHFFFAOYSA-N

>  <exports>  (50) 
['/opt/xchem-fragalysis-2/maxwin/BulkDock/OUTPUTS/openbind_a71ev2a_c2_elabs_1LOUU54.sdf', '/opt/xchem-fragalysis-2/maxwin/BulkDock/OUTPUTS/openbind_a71ev2a_c2_elabs_1LSYIDY.sdf']

>  <name>  (50) 
P537160

>  <ref_pdb>  (50) 
A3181a

>  <subsites>  (50) 
None

>  <HIPPO Pose ID>  (50) 
537160

>  <ref_mols>  (50) 
A3181a

>  <HIPPO Compound ID>  (50) 
299798

>  <tags>  (50) 
openbind_a71ev2a_c2_elabs,syndirella_product,openbind_a71ev2a_c2_elabs_scored,BulkDock Fragalysis export,openbind_a71ev2a_c2_elabs_scored_top80percent,openbind_a71ev2a_c2_elabs_scored_6plus,openbind_a71ev2a_c2_elabs_scored_top80percent_despaghettified,syndirella_placed,openbind_a71ev2a_c1_elabs_filtered

>  <smina_score_min>  (50) 
-7.276

$$$$
P537162
     RDKit          3D

 23 26  0  0  0  0  0  0  0  0999 V2000
    9.2496    9.1188   23.3149 C   0  0  0  0  0  0  0  0  0  0  0  0
    8.7866   10.3681   23.8768 N   0  0  0  0  0  0  0  0  0  0  0  0
    9.3825   11.5052   23.4867 N   0  0  0  0  0  0  0  0  0  0  0  0
    8.8055   12.4563   24.2516 C   0  0  0  0  0  0  0  0  0  0  0  0
    9.3028   13.8307   24.2596 C   0  0  0  0  0  0  0  0  0  0  0  0
    8.8976   14.6371   24.9896 O   0  0  0  0  0  0  0  0  0  0  0  0
   10.4385   13.8942   23.2524 N   0  0  0  0  0  0  0  0  0  0  0  0
   11.3721   14.9129   22.9899 C   0  0  0  0  0  0  0  0  0  0  0  0
   11.6881   15.0579   21.5443 C   0  0  0  0  0  0  0  0  0  0  0  0
   10.6843   15.7568   20.7142 N   0  0  0  0  0  0  0  0  0  0  0  0
   10.4966   15.5968   19.3780 C   0  0  0  0  0  0  0  0  0  0  0  0
    9.6749   16.5219   18.9460 N   0  0  0  0  0  0  0  0  0  0  0  0
    9.4003   17.2420   20.0752 C   0  0  0  0  0  0  0  0  0  0  0  0
    9.9665   16.7740   21.1804 N   0  0  0  0  0  0  0  0  0  0  0  0
   13.1421   15.3426   21.3495 C   0  0  0  0  0  0  0  0  0  0  0  0
   12.5809   14.0231   20.9260 C   0  0  0  0  0  0  0  0  0  0  0  0
    7.7860   11.9356   25.0696 C   0  0  0  0  0  0  0  0  0  0  0  0
    6.8919   12.4681   26.0172 C   0  0  0  0  0  0  0  0  0  0  0  0
    6.0587   11.5936   26.7012 C   0  0  0  0  0  0  0  0  0  0  0  0
    5.2137   12.0685   27.6257 F   0  0  0  0  0  0  0  0  0  0  0  0
    6.1018   10.2297   26.4655 C   0  0  0  0  0  0  0  0  0  0  0  0
    6.9739    9.7020   25.5113 C   0  0  0  0  0  0  0  0  0  0  0  0
    7.8146   10.5693   24.8248 C   0  0  0  0  0  0  0  0  0  0  0  0
  1  2  1  0
  2  3  1  0
  3  4  2  0
  4  5  1  0
  5  6  2  0
  5  7  1  0
  7  8  1  0
  8  9  1  0
  9 10  1  0
 10 11  1  0
 11 12  2  0
 12 13  1  0
 13 14  2  0
  9 15  1  0
 15 16  1  0
  4 17  1  0
 17 18  2  0
 18 19  1  0
 19 20  1  0
 19 21  2  0
 21 22  1  0
 22 23  2  0
 23  2  1  0
 16  9  1  0
 23 17  1  0
 14 10  1  0
M  END
>  <alias>  (51) 
None

>  <rmsd(smina/fragmenstein)>  (51) 
0.73

>  <smiles>  (51) 
Cn1nc(C(=O)NCC2(n3cncn3)CC2)c2cc(F)ccc21

>  <gnina_score>  (51) 
5.997

>  <inspiration_score>  (51) 
None

>  <energy_score>  (51) 
-23.445415

>  <distance_score>  (51) 
0.680133

>  <gnina_score_min>  (51) 
6.037

>  <inchikey>  (51) 
QQXHNYZCKARTOU-UHFFFAOYSA-N

>  <exports>  (51) 
['/opt/xchem-fragalysis-2/maxwin/BulkDock/OUTPUTS/openbind_a71ev2a_c2_elabs_1LOUU54.sdf', '/opt/xchem-fragalysis-2/maxwin/BulkDock/OUTPUTS/openbind_a71ev2a_c2_elabs_1LSYIDY.sdf']

>  <name>  (51) 
P537162

>  <ref_pdb>  (51) 
A3181a

>  <subsites>  (51) 
None

>  <HIPPO Pose ID>  (51) 
537162

>  <ref_mols>  (51) 
A3181a

>  <HIPPO Compound ID>  (51) 
299797

>  <tags>  (51) 
openbind_a71ev2a_c2_elabs,syndirella_product,openbind_a71ev2a_c2_elabs_scored,BulkDock Fragalysis export,openbind_a71ev2a_c2_elabs_scored_top80percent,openbind_a71ev2a_c2_elabs_scored_6plus,openbind_a71ev2a_c2_elabs_scored_top80percent_despaghettified,syndirella_placed,openbind_a71ev2a_c1_elabs_filtered

>  <smina_score_min>  (51) 
-6.677

$$$$
P537165
     RDKit          3D

 23 25  0  0  0  0  0  0  0  0999 V2000
    9.3033    9.0607   23.2079 C   0  0  0  0  0  0  0  0  0  0  0  0
    8.9778   10.3404   23.7982 N   0  0  0  0  0  0  0  0  0  0  0  0
    9.7220   11.4102   23.4686 N   0  0  0  0  0  0  0  0  0  0  0  0
    9.2187   12.4124   24.2175 C   0  0  0  0  0  0  0  0  0  0  0  0
    9.8801   13.7263   24.2587 C   0  0  0  0  0  0  0  0  0  0  0  0
    9.5783   14.5443   25.0293 O   0  0  0  0  0  0  0  0  0  0  0  0
   10.9896   13.7167   23.2050 N   0  0  0  0  0  0  0  0  0  0  0  0
   12.0233   14.6674   22.9352 C   0  0  0  0  0  0  0  0  0  0  0  0
   12.1981   14.9489   21.4592 C   0  0  0  0  0  0  0  0  0  0  0  0
   11.0436   15.5439   20.8245 N   0  0  0  0  0  0  0  0  0  0  0  0
   10.3101   16.4780   21.4273 N   0  0  0  0  0  0  0  0  0  0  0  0
    9.6706   17.0323   20.3953 C   0  0  0  0  0  0  0  0  0  0  0  0
    8.9108   18.7316   20.4372 Br  0  0  0  0  0  0  0  0  0  0  0  0
    9.8279   16.3934   19.2134 N   0  0  0  0  0  0  0  0  0  0  0  0
   10.7492   15.5215   19.5049 C   0  0  0  0  0  0  0  0  0  0  0  0
   11.7184   14.6386   18.2098 Br  0  0  0  0  0  0  0  0  0  0  0  0
    8.1001   11.9881   24.9744 C   0  0  0  0  0  0  0  0  0  0  0  0
    7.2083   12.5945   25.8803 C   0  0  0  0  0  0  0  0  0  0  0  0
    6.2828   11.7911   26.5396 C   0  0  0  0  0  0  0  0  0  0  0  0
    5.4538   12.3401   27.4376 F   0  0  0  0  0  0  0  0  0  0  0  0
    6.2266   10.4235   26.3192 C   0  0  0  0  0  0  0  0  0  0  0  0
    7.0802    9.8203   25.3942 C   0  0  0  0  0  0  0  0  0  0  0  0
    8.0076   10.6216   24.7283 C   0  0  0  0  0  0  0  0  0  0  0  0
  1  2  1  0
  2  3  1  0
  3  4  2  0
  4  5  1  0
  5  6  2  0
  5  7  1  0
  7  8  1  0
  8  9  1  0
  9 10  1  0
 10 11  1  0
 11 12  2  0
 12 13  1  0
 12 14  1  0
 14 15  2  0
 15 16  1  0
  4 17  1  0
 17 18  2  0
 18 19  1  0
 19 20  1  0
 19 21  2  0
 21 22  1  0
 22 23  2  0
 23  2  1  0
 15 10  1  0
 23 17  1  0
M  END
>  <alias>  (52) 
None

>  <rmsd(smina/fragmenstein)>  (52) 
0.147

>  <smiles>  (52) 
Cn1nc(C(=O)NCCn2nc(Br)nc2Br)c2cc(F)ccc21

>  <gnina_score>  (52) 
6.4

>  <inspiration_score>  (52) 
None

>  <energy_score>  (52) 
-6.284686

>  <distance_score>  (52) 
0.385072

>  <gnina_score_min>  (52) 
6.391

>  <inchikey>  (52) 
VZNYBFCDKAFLLW-UHFFFAOYSA-N

>  <exports>  (52) 
['/opt/xchem-fragalysis-2/maxwin/BulkDock/OUTPUTS/openbind_a71ev2a_c2_elabs_1LOUU54.sdf', '/opt/xchem-fragalysis-2/maxwin/BulkDock/OUTPUTS/openbind_a71ev2a_c2_elabs_1LSYIDY.sdf']

>  <name>  (52) 
P537165

>  <ref_pdb>  (52) 
A3181a

>  <subsites>  (52) 
None

>  <HIPPO Pose ID>  (52) 
537165

>  <ref_mols>  (52) 
A3181a

>  <HIPPO Compound ID>  (52) 
299806

>  <tags>  (52) 
openbind_a71ev2a_c2_elabs,syndirella_product,openbind_a71ev2a_c2_elabs_scored,BulkDock Fragalysis export,openbind_a71ev2a_c2_elabs_scored_top80percent,openbind_a71ev2a_c2_elabs_scored_6plus,openbind_a71ev2a_c2_elabs_scored_top80percent_despaghettified,syndirella_placed,openbind_a71ev2a_c1_elabs_filtered

>  <smina_score_min>  (52) 
-6.628

$$$$
P537166
     RDKit          3D

 23 25  0  0  0  0  0  0  0  0999 V2000
    8.9057   18.0610   20.7924 C   0  0  0  0  0  0  0  0  0  0  0  0
    9.7428   16.9008   20.4923 C   0  0  0  0  0  0  0  0  0  0  0  0
    9.9303   16.4326   19.2323 N   0  0  0  0  0  0  0  0  0  0  0  0
   10.8857   15.5483   19.3939 C   0  0  0  0  0  0  0  0  0  0  0  0
   11.6025   14.8728   18.3231 C   0  0  0  0  0  0  0  0  0  0  0  0
   11.1997   15.4441   20.7152 N   0  0  0  0  0  0  0  0  0  0  0  0
   12.3252   14.7718   21.3208 C   0  0  0  0  0  0  0  0  0  0  0  0
   12.1713   14.5162   22.8106 C   0  0  0  0  0  0  0  0  0  0  0  0
   11.1227   13.5908   23.1209 N   0  0  0  0  0  0  0  0  0  0  0  0
    9.9957   13.6734   24.1557 C   0  0  0  0  0  0  0  0  0  0  0  0
    9.6899   14.5394   24.8715 O   0  0  0  0  0  0  0  0  0  0  0  0
    9.2891   12.3802   24.1514 C   0  0  0  0  0  0  0  0  0  0  0  0
    9.7491   11.3468   23.4178 N   0  0  0  0  0  0  0  0  0  0  0  0
    8.9881   10.3060   23.7905 N   0  0  0  0  0  0  0  0  0  0  0  0
    9.2875    9.0059   23.2362 C   0  0  0  0  0  0  0  0  0  0  0  0
    8.0278   10.6350   24.7141 C   0  0  0  0  0  0  0  0  0  0  0  0
    7.0789    9.8752   25.4012 C   0  0  0  0  0  0  0  0  0  0  0  0
    6.2461   10.5262   26.3128 C   0  0  0  0  0  0  0  0  0  0  0  0
    6.3442   11.8966   26.5004 C   0  0  0  0  0  0  0  0  0  0  0  0
    5.5361   12.4910   27.3885 F   0  0  0  0  0  0  0  0  0  0  0  0
    7.2901   12.6574   25.8189 C   0  0  0  0  0  0  0  0  0  0  0  0
    8.1611   12.0053   24.9245 C   0  0  0  0  0  0  0  0  0  0  0  0
   10.4376   16.2651   21.4352 N   0  0  0  0  0  0  0  0  0  0  0  0
  1  2  1  0
  2  3  1  0
  3  4  2  0
  4  5  1  0
  4  6  1  0
  6  7  1  0
  7  8  1  0
  8  9  1  0
  9 10  1  0
 10 11  2  0
 10 12  1  0
 12 13  2  0
 13 14  1  0
 14 15  1  0
 14 16  1  0
 16 17  2  0
 17 18  1  0
 18 19  2  0
 19 20  1  0
 19 21  1  0
 21 22  2  0
  6 23  1  0
 23  2  2  0
 22 12  1  0
 22 16  1  0
M  END
>  <alias>  (53) 
None

>  <rmsd(smina/fragmenstein)>  (53) 
0.163

>  <smiles>  (53) 
Cc1nc(C)n(CCNC(=O)c2nn(C)c3ccc(F)cc23)n1

>  <gnina_score>  (53) 
6.277

>  <inspiration_score>  (53) 
None

>  <energy_score>  (53) 
-6.884902

>  <distance_score>  (53) 
0.326583

>  <gnina_score_min>  (53) 
6.277

>  <inchikey>  (53) 
RLBKBXWOUWYHEY-UHFFFAOYSA-N

>  <exports>  (53) 
['/opt/xchem-fragalysis-2/maxwin/BulkDock/OUTPUTS/openbind_a71ev2a_c2_elabs_1LOUU54.sdf', '/opt/xchem-fragalysis-2/maxwin/BulkDock/OUTPUTS/openbind_a71ev2a_c2_elabs_1LSYIDY.sdf']

>  <name>  (53) 
P537166

>  <ref_pdb>  (53) 
A3181a

>  <subsites>  (53) 
None

>  <HIPPO Pose ID>  (53) 
537166

>  <ref_mols>  (53) 
A3181a

>  <HIPPO Compound ID>  (53) 
299804

>  <tags>  (53) 
openbind_a71ev2a_c2_elabs,syndirella_product,openbind_a71ev2a_c2_elabs_scored,BulkDock Fragalysis export,openbind_a71ev2a_c2_elabs_scored_top80percent,openbind_a71ev2a_c2_elabs_scored_6plus,openbind_a71ev2a_c2_elabs_scored_top80percent_despaghettified,syndirella_placed,openbind_a71ev2a_c1_elabs_filtered

>  <smina_score_min>  (53) 
-7.825

$$$$
P537167
     RDKit          3D

 23 25  0  0  0  0  0  0  0  0999 V2000
   12.6049   13.5609   24.8328 C   0  0  0  0  0  0  0  0  0  0  0  0
   12.8388   13.9596   23.3855 C   0  0  0  0  0  0  0  0  0  0  0  0
   11.6478   14.5904   22.6751 C   0  0  1  0  0  0  0  0  0  0  0  0
   12.0056   14.8199   21.2074 C   0  0  0  0  0  0  0  0  0  0  0  0
   10.9884   15.5253   20.4768 N   0  0  0  0  0  0  0  0  0  0  0  0
   10.6969   15.4369   19.1581 C   0  0  0  0  0  0  0  0  0  0  0  0
    9.7747   16.3224   18.8642 N   0  0  0  0  0  0  0  0  0  0  0  0
    9.5719   16.9735   20.0494 C   0  0  0  0  0  0  0  0  0  0  0  0
   10.2837   16.4966   21.0651 N   0  0  0  0  0  0  0  0  0  0  0  0
   10.5853   13.6726   22.9444 N   0  0  0  0  0  0  0  0  0  0  0  0
    9.4253   13.7596   23.9346 C   0  0  0  0  0  0  0  0  0  0  0  0
    9.0984   14.6248   24.6392 O   0  0  0  0  0  0  0  0  0  0  0  0
    8.7754   12.4440   23.9493 C   0  0  0  0  0  0  0  0  0  0  0  0
    9.2992   11.4170   23.2464 N   0  0  0  0  0  0  0  0  0  0  0  0
    8.7317   10.3273   23.7827 N   0  0  0  0  0  0  0  0  0  0  0  0
    9.2336    9.0330   23.3819 C   0  0  0  0  0  0  0  0  0  0  0  0
    7.7855   10.6198   24.7327 C   0  0  0  0  0  0  0  0  0  0  0  0
    6.9641    9.8193   25.5246 C   0  0  0  0  0  0  0  0  0  0  0  0
    6.1436   10.4378   26.4691 C   0  0  0  0  0  0  0  0  0  0  0  0
    6.1425   11.8174   26.6029 C   0  0  0  0  0  0  0  0  0  0  0  0
    5.3573   12.3788   27.5318 F   0  0  0  0  0  0  0  0  0  0  0  0
    6.9551   12.6226   25.8125 C   0  0  0  0  0  0  0  0  0  0  0  0
    7.7802   12.0067   24.8524 C   0  0  0  0  0  0  0  0  0  0  0  0
  1  2  1  0
  3  2  1  1
  3  4  1  0
  4  5  1  0
  5  6  1  0
  6  7  2  0
  7  8  1  0
  8  9  2  0
  3 10  1  0
 10 11  1  0
 11 12  2  0
 11 13  1  0
 13 14  2  0
 14 15  1  0
 15 16  1  0
 15 17  1  0
 17 18  2  0
 18 19  1  0
 19 20  2  0
 20 21  1  0
 20 22  1  0
 22 23  2  0
  9  5  1  0
 23 13  1  0
 23 17  1  0
M  END
>  <alias>  (54) 
None

>  <rmsd(smina/fragmenstein)>  (54) 
0.349

>  <smiles>  (54) 
CC[C@@H](Cn1cncn1)NC(=O)c1nn(C)c2ccc(F)cc12

>  <gnina_score>  (54) 
6.417

>  <inspiration_score>  (54) 
None

>  <energy_score>  (54) 
-17.828854

>  <distance_score>  (54) 
0.500077

>  <gnina_score_min>  (54) 
6.36

>  <inchikey>  (54) 
UMWRWIISYLUZJH-NSHDSACASA-N

>  <exports>  (54) 
['/opt/xchem-fragalysis-2/maxwin/BulkDock/OUTPUTS/openbind_a71ev2a_c2_elabs_1LOUU54.sdf', '/opt/xchem-fragalysis-2/maxwin/BulkDock/OUTPUTS/openbind_a71ev2a_c2_elabs_1LSYIDY.sdf']

>  <name>  (54) 
P537167

>  <ref_pdb>  (54) 
A3181a

>  <subsites>  (54) 
None

>  <HIPPO Pose ID>  (54) 
537167

>  <ref_mols>  (54) 
A3181a

>  <HIPPO Compound ID>  (54) 
299802

>  <tags>  (54) 
openbind_a71ev2a_c2_elabs,syndirella_product,openbind_a71ev2a_c2_elabs_scored,BulkDock Fragalysis export,openbind_a71ev2a_c2_elabs_scored_top80percent,openbind_a71ev2a_c2_elabs_scored_6plus,openbind_a71ev2a_c2_elabs_scored_top80percent_despaghettified,syndirella_placed,openbind_a71ev2a_c1_elabs_filtered

>  <smina_score_min>  (54) 
-7.242

$$$$
P537170
     RDKit          3D

 23 25  0  0  0  0  0  0  0  0999 V2000
   12.8432   14.2398   23.3575 C   0  0  0  0  0  0  0  0  0  0  0  0
   11.6107   14.7795   22.6664 C   0  0  2  0  0  0  0  0  0  0  0  0
   10.6088   13.8051   22.9569 N   0  0  0  0  0  0  0  0  0  0  0  0
    9.5378   13.7761   24.0472 C   0  0  0  0  0  0  0  0  0  0  0  0
    9.2458   14.5764   24.8394 O   0  0  0  0  0  0  0  0  0  0  0  0
    8.9238   12.4443   24.0375 C   0  0  0  0  0  0  0  0  0  0  0  0
    9.4456   11.4482   23.2933 N   0  0  0  0  0  0  0  0  0  0  0  0
    8.8254   10.3435   23.7392 N   0  0  0  0  0  0  0  0  0  0  0  0
    9.2359    9.0593   23.2165 C   0  0  0  0  0  0  0  0  0  0  0  0
    7.8832   10.6037   24.7031 C   0  0  0  0  0  0  0  0  0  0  0  0
    7.0376    9.7779   25.4402 C   0  0  0  0  0  0  0  0  0  0  0  0
    6.1992   10.3625   26.3910 C   0  0  0  0  0  0  0  0  0  0  0  0
    6.2050   11.7349   26.5834 C   0  0  0  0  0  0  0  0  0  0  0  0
    5.4010   12.2652   27.5150 F   0  0  0  0  0  0  0  0  0  0  0  0
    7.0492   12.5643   25.8531 C   0  0  0  0  0  0  0  0  0  0  0  0
    7.9007   11.9805   24.8953 C   0  0  0  0  0  0  0  0  0  0  0  0
   11.8603   15.1974   21.2067 C   0  0  1  0  0  0  0  0  0  0  0  0
   12.5294   14.1692   20.3230 C   0  0  0  0  0  0  0  0  0  0  0  0
   10.7012   15.7872   20.5711 N   0  0  0  0  0  0  0  0  0  0  0  0
   10.4828   15.9787   19.2458 C   0  0  0  0  0  0  0  0  0  0  0  0
    9.5561   16.8886   19.0930 N   0  0  0  0  0  0  0  0  0  0  0  0
    9.2262   17.2272   20.3686 C   0  0  0  0  0  0  0  0  0  0  0  0
    9.8458   16.5110   21.2980 N   0  0  0  0  0  0  0  0  0  0  0  0
  2  1  1  6
  2  3  1  0
  3  4  1  0
  4  5  2  0
  4  6  1  0
  6  7  2  0
  7  8  1  0
  8  9  1  0
  8 10  1  0
 10 11  2  0
 11 12  1  0
 12 13  2  0
 13 14  1  0
 13 15  1  0
 15 16  2  0
  2 17  1  0
 17 18  1  6
 17 19  1  0
 19 20  1  0
 20 21  2  0
 21 22  1  0
 22 23  2  0
 16  6  1  0
 23 19  1  0
 16 10  1  0
M  END
>  <alias>  (55) 
None

>  <rmsd(smina/fragmenstein)>  (55) 
0.45

>  <smiles>  (55) 
C[C@H](NC(=O)c1nn(C)c2ccc(F)cc12)[C@@H](C)n1cncn1

>  <gnina_score>  (55) 
6.102

>  <inspiration_score>  (55) 
None

>  <energy_score>  (55) 
-2.339785

>  <distance_score>  (55) 
0.576064

>  <gnina_score_min>  (55) 
6.12

>  <inchikey>  (55) 
CNUISLGIJOAKIF-VHSXEESVSA-N

>  <exports>  (55) 
['/opt/xchem-fragalysis-2/maxwin/BulkDock/OUTPUTS/openbind_a71ev2a_c2_elabs_1LOUU54.sdf', '/opt/xchem-fragalysis-2/maxwin/BulkDock/OUTPUTS/openbind_a71ev2a_c2_elabs_1LSYIDY.sdf']

>  <name>  (55) 
P537170

>  <ref_pdb>  (55) 
A3181a

>  <subsites>  (55) 
None

>  <HIPPO Pose ID>  (55) 
537170

>  <ref_mols>  (55) 
A3181a

>  <HIPPO Compound ID>  (55) 
299800

>  <tags>  (55) 
openbind_a71ev2a_c2_elabs,syndirella_product,openbind_a71ev2a_c2_elabs_scored,BulkDock Fragalysis export,openbind_a71ev2a_c2_elabs_scored_top80percent,openbind_a71ev2a_c2_elabs_scored_6plus,openbind_a71ev2a_c2_elabs_scored_top80percent_despaghettified,syndirella_placed,openbind_a71ev2a_c1_elabs_filtered

>  <smina_score_min>  (55) 
-6.436

$$$$
P537172
     RDKit          3D

 23 25  0  0  0  0  0  0  0  0999 V2000
    9.3296    9.0444   23.1723 C   0  0  0  0  0  0  0  0  0  0  0  0
    9.0395   10.3519   23.7165 N   0  0  0  0  0  0  0  0  0  0  0  0
    9.7973   11.3939   23.3311 N   0  0  0  0  0  0  0  0  0  0  0  0
    9.3334   12.4344   24.0508 C   0  0  0  0  0  0  0  0  0  0  0  0
   10.0227   13.7413   24.0279 C   0  0  0  0  0  0  0  0  0  0  0  0
    9.7084   14.6028   24.7462 O   0  0  0  0  0  0  0  0  0  0  0  0
   11.1803   13.6556   23.0227 N   0  0  0  0  0  0  0  0  0  0  0  0
   12.1405   14.6447   22.6184 C   0  0  0  0  0  0  0  0  0  0  0  0
   12.3045   14.8061   21.1169 C   0  0  0  0  0  0  0  0  0  0  0  0
   11.1799   15.4253   20.4588 N   0  0  0  0  0  0  0  0  0  0  0  0
   10.7799   15.2302   19.1767 C   0  0  0  0  0  0  0  0  0  0  0  0
    9.8709   16.1209   18.8600 N   0  0  0  0  0  0  0  0  0  0  0  0
    9.7873   16.8956   19.9900 C   0  0  0  0  0  0  0  0  0  0  0  0
    9.1118   18.1614   19.9738 C   0  0  0  0  0  0  0  0  0  0  0  0
    8.6194   19.2016   19.8095 N   0  0  0  0  0  0  0  0  0  0  0  0
   10.5475   16.4760   21.0069 N   0  0  0  0  0  0  0  0  0  0  0  0
    8.2178   12.0555   24.8458 C   0  0  0  0  0  0  0  0  0  0  0  0
    7.3514   12.7071   25.7455 C   0  0  0  0  0  0  0  0  0  0  0  0
    6.4110   11.9459   26.4363 C   0  0  0  0  0  0  0  0  0  0  0  0
    5.6072   12.5430   27.3267 F   0  0  0  0  0  0  0  0  0  0  0  0
    6.3126   10.5745   26.2536 C   0  0  0  0  0  0  0  0  0  0  0  0
    7.1442    9.9208   25.3429 C   0  0  0  0  0  0  0  0  0  0  0  0
    8.0875   10.6828   24.6477 C   0  0  0  0  0  0  0  0  0  0  0  0
  1  2  1  0
  2  3  1  0
  3  4  2  0
  4  5  1  0
  5  6  2  0
  5  7  1  0
  7  8  1  0
  8  9  1  0
  9 10  1  0
 10 11  1  0
 11 12  2  0
 12 13  1  0
 13 14  1  0
 14 15  3  0
 13 16  2  0
  4 17  1  0
 17 18  2  0
 18 19  1  0
 19 20  1  0
 19 21  2  0
 21 22  1  0
 22 23  2  0
 23  2  1  0
 16 10  1  0
 23 17  1  0
M  END
>  <alias>  (56) 
None

>  <rmsd(smina/fragmenstein)>  (56) 
0.224

>  <smiles>  (56) 
Cn1nc(C(=O)NCCn2cnc(C#N)n2)c2cc(F)ccc21

>  <gnina_score>  (56) 
6.33

>  <inspiration_score>  (56) 
None

>  <energy_score>  (56) 
-6.058133

>  <distance_score>  (56) 
0.252283

>  <gnina_score_min>  (56) 
6.276

>  <inchikey>  (56) 
GKWXXOWHCNUEFJ-UHFFFAOYSA-N

>  <exports>  (56) 
['/opt/xchem-fragalysis-2/maxwin/BulkDock/OUTPUTS/openbind_a71ev2a_c2_elabs_1LOUU54.sdf', '/opt/xchem-fragalysis-2/maxwin/BulkDock/OUTPUTS/openbind_a71ev2a_c2_elabs_1LSYIDY.sdf']

>  <name>  (56) 
P537172

>  <ref_pdb>  (56) 
A3181a

>  <subsites>  (56) 
None

>  <HIPPO Pose ID>  (56) 
537172

>  <ref_mols>  (56) 
A3181a

>  <HIPPO Compound ID>  (56) 
299803

>  <tags>  (56) 
openbind_a71ev2a_c2_elabs,syndirella_product,openbind_a71ev2a_c2_elabs_scored,BulkDock Fragalysis export,openbind_a71ev2a_c2_elabs_scored_top80percent,openbind_a71ev2a_c2_elabs_scored_6plus,openbind_a71ev2a_c2_elabs_scored_top80percent_despaghettified,syndirella_placed,openbind_a71ev2a_c1_elabs_filtered

>  <smina_score_min>  (56) 
-7.785

$$$$
P537179
     RDKit          3D

 24 27  0  0  0  0  0  0  0  0999 V2000
    8.8893   18.3378   20.4617 C   0  0  0  0  0  0  0  0  0  0  0  0
    9.8294   17.2463   20.2174 C   0  0  0  0  0  0  0  0  0  0  0  0
    9.9531   16.5747   19.0434 N   0  0  0  0  0  0  0  0  0  0  0  0
   10.8842   15.6858   19.3113 C   0  0  0  0  0  0  0  0  0  0  0  0
   11.5442   14.8013   18.3644 C   0  0  0  0  0  0  0  0  0  0  0  0
   11.1927   15.7353   20.6407 N   0  0  0  0  0  0  0  0  0  0  0  0
   11.5108   14.5645   21.4490 C   0  0  0  0  0  0  0  0  0  0  0  0
   11.8851   14.7939   22.8758 C   0  0  0  0  0  0  0  0  0  0  0  0
   10.9454   13.6835   23.3235 N   0  0  0  0  0  0  0  0  0  0  0  0
   10.0213   13.5997   24.4994 C   0  0  0  0  0  0  0  0  0  0  0  0
    9.7464   14.4068   25.3117 O   0  0  0  0  0  0  0  0  0  0  0  0
    9.3548   12.2859   24.4587 C   0  0  0  0  0  0  0  0  0  0  0  0
    9.7973   11.2817   23.6811 N   0  0  0  0  0  0  0  0  0  0  0  0
    8.9735   10.2579   23.9316 N   0  0  0  0  0  0  0  0  0  0  0  0
    9.2202    9.0026   23.2590 C   0  0  0  0  0  0  0  0  0  0  0  0
    7.9968   10.5670   24.8451 C   0  0  0  0  0  0  0  0  0  0  0  0
    6.9939    9.8124   25.4499 C   0  0  0  0  0  0  0  0  0  0  0  0
    6.1493   10.4419   26.3652 C   0  0  0  0  0  0  0  0  0  0  0  0
    6.2714   11.7988   26.6161 C   0  0  0  0  0  0  0  0  0  0  0  0
    5.4393   12.3769   27.4927 F   0  0  0  0  0  0  0  0  0  0  0  0
    7.2677   12.5585   26.0133 C   0  0  0  0  0  0  0  0  0  0  0  0
    8.1730   11.9140   25.1471 C   0  0  0  0  0  0  0  0  0  0  0  0
   10.2178   14.1618   22.0788 C   0  0  0  0  0  0  0  0  0  0  0  0
   10.5980   16.7850   21.1973 N   0  0  0  0  0  0  0  0  0  0  0  0
  1  2  1  0
  2  3  1  0
  3  4  2  0
  4  5  1  0
  4  6  1  0
  6  7  1  0
  7  8  1  0
  8  9  1  0
  9 10  1  0
 10 11  2  0
 10 12  1  0
 12 13  2  0
 13 14  1  0
 14 15  1  0
 14 16  1  0
 16 17  2  0
 17 18  1  0
 18 19  2  0
 19 20  1  0
 19 21  1  0
 21 22  2  0
  9 23  1  0
  6 24  1  0
 24  2  2  0
 23  7  1  0
 22 12  1  0
 22 16  1  0
M  END
>  <alias>  (57) 
None

>  <rmsd(smina/fragmenstein)>  (57) 
0.237

>  <smiles>  (57) 
Cc1nc(C)n(C2CN(C(=O)c3nn(C)c4ccc(F)cc34)C2)n1

>  <gnina_score>  (57) 
6.235

>  <inspiration_score>  (57) 
None

>  <energy_score>  (57) 
-1.201021

>  <distance_score>  (57) 
0.466665

>  <gnina_score_min>  (57) 
6.223

>  <inchikey>  (57) 
SGWMMONGTDPZNP-UHFFFAOYSA-N

>  <exports>  (57) 
['/opt/xchem-fragalysis-2/maxwin/BulkDock/OUTPUTS/openbind_a71ev2a_c2_elabs_1LOUU54.sdf', '/opt/xchem-fragalysis-2/maxwin/BulkDock/OUTPUTS/openbind_a71ev2a_c2_elabs_1LSYIDY.sdf']

>  <name>  (57) 
P537179

>  <ref_pdb>  (57) 
A3181a

>  <subsites>  (57) 
None

>  <HIPPO Pose ID>  (57) 
537179

>  <ref_mols>  (57) 
A3181a

>  <HIPPO Compound ID>  (57) 
299808

>  <tags>  (57) 
openbind_a71ev2a_c2_elabs,syndirella_product,openbind_a71ev2a_c2_elabs_scored,BulkDock Fragalysis export,openbind_a71ev2a_c2_elabs_scored_top80percent,openbind_a71ev2a_c2_elabs_scored_6plus,openbind_a71ev2a_c2_elabs_scored_top80percent_despaghettified,syndirella_placed,openbind_a71ev2a_c1_elabs_filtered

>  <smina_score_min>  (57) 
-7.974

$$$$
P537182
     RDKit          3D

 24 27  0  0  0  0  0  0  0  0999 V2000
    9.1883    9.0896   23.2743 C   0  0  0  0  0  0  0  0  0  0  0  0
    8.7845   10.3494   23.8576 N   0  0  0  0  0  0  0  0  0  0  0  0
    9.4308   11.4644   23.4833 N   0  0  0  0  0  0  0  0  0  0  0  0
    8.8886   12.4322   24.2516 C   0  0  0  0  0  0  0  0  0  0  0  0
    9.4618   13.7771   24.2766 C   0  0  0  0  0  0  0  0  0  0  0  0
    9.1503   14.5760   25.0608 O   0  0  0  0  0  0  0  0  0  0  0  0
   10.5352   13.8185   23.1965 N   0  0  0  0  0  0  0  0  0  0  0  0
   11.5082   14.7969   22.9088 C   0  0  0  0  0  0  0  0  0  0  0  0
   11.5804   15.0627   21.4341 C   0  0  0  0  0  0  0  0  0  0  0  0
   10.4276   15.7811   20.8207 N   0  0  0  0  0  0  0  0  0  0  0  0
   10.1413   15.8848   19.4862 C   0  0  0  0  0  0  0  0  0  0  0  0
    9.4596   16.9804   19.2683 N   0  0  0  0  0  0  0  0  0  0  0  0
    9.2079   17.4321   20.5221 C   0  0  0  0  0  0  0  0  0  0  0  0
    9.7074   16.6720   21.4907 N   0  0  0  0  0  0  0  0  0  0  0  0
   12.9003   15.8338   21.2568 C   0  0  0  0  0  0  0  0  0  0  0  0
   13.0452   15.1016   19.9306 C   0  0  0  0  0  0  0  0  0  0  0  0
   12.1782   14.0260   20.4851 C   0  0  0  0  0  0  0  0  0  0  0  0
    7.8463   11.9458   25.0630 C   0  0  0  0  0  0  0  0  0  0  0  0
    6.9698   12.5047   26.0118 C   0  0  0  0  0  0  0  0  0  0  0  0
    6.1089   11.6560   26.6959 C   0  0  0  0  0  0  0  0  0  0  0  0
    5.2846   12.1584   27.6249 F   0  0  0  0  0  0  0  0  0  0  0  0
    6.1082   10.2914   26.4596 C   0  0  0  0  0  0  0  0  0  0  0  0
    6.9605    9.7374   25.5026 C   0  0  0  0  0  0  0  0  0  0  0  0
    7.8270   10.5792   24.8142 C   0  0  0  0  0  0  0  0  0  0  0  0
  1  2  1  0
  2  3  1  0
  3  4  2  0
  4  5  1  0
  5  6  2  0
  5  7  1  0
  7  8  1  0
  8  9  1  0
  9 10  1  0
 10 11  1  0
 11 12  2  0
 12 13  1  0
 13 14  2  0
  9 15  1  0
 15 16  1  0
 16 17  1  0
  4 18  1  0
 18 19  2  0
 19 20  1  0
 20 21  1  0
 20 22  2  0
 22 23  1  0
 23 24  2  0
 24  2  1  0
 17  9  1  0
 24 18  1  0
 14 10  1  0
M  END
>  <alias>  (58) 
None

>  <rmsd(smina/fragmenstein)>  (58) 
0.385

>  <smiles>  (58) 
Cn1nc(C(=O)NCC2(n3cncn3)CCC2)c2cc(F)ccc21

>  <gnina_score>  (58) 
6.095

>  <inspiration_score>  (58) 
None

>  <energy_score>  (58) 
-10.29812

>  <distance_score>  (58) 
0.719745

>  <gnina_score_min>  (58) 
6.037

>  <inchikey>  (58) 
OGUVBYNAJBMCLL-UHFFFAOYSA-N

>  <exports>  (58) 
['/opt/xchem-fragalysis-2/maxwin/BulkDock/OUTPUTS/openbind_a71ev2a_c2_elabs_1LOUU54.sdf', '/opt/xchem-fragalysis-2/maxwin/BulkDock/OUTPUTS/openbind_a71ev2a_c2_elabs_1LSYIDY.sdf']

>  <name>  (58) 
P537182

>  <ref_pdb>  (58) 
A3181a

>  <subsites>  (58) 
None

>  <HIPPO Pose ID>  (58) 
537182

>  <ref_mols>  (58) 
A3181a

>  <HIPPO Compound ID>  (58) 
299813

>  <tags>  (58) 
openbind_a71ev2a_c2_elabs,syndirella_product,openbind_a71ev2a_c2_elabs_scored,BulkDock Fragalysis export,openbind_a71ev2a_c2_elabs_scored_top80percent,openbind_a71ev2a_c2_elabs_scored_6plus,openbind_a71ev2a_c2_elabs_scored_top80percent_despaghettified,syndirella_placed,openbind_a71ev2a_c1_elabs_filtered

>  <smina_score_min>  (58) 
-6.277

$$$$
P537218
     RDKit          3D

 25 28  0  0  0  0  0  0  0  0999 V2000
    9.0222    8.8085   23.2284 C   0  0  0  0  0  0  0  0  0  0  0  0
    8.8701   10.0820   23.8827 N   0  0  0  0  0  0  0  0  0  0  0  0
    9.7808   11.0199   23.6174 N   0  0  0  0  0  0  0  0  0  0  0  0
    9.3772   12.0827   24.3320 C   0  0  0  0  0  0  0  0  0  0  0  0
   10.2012   13.2905   24.3939 C   0  0  0  0  0  0  0  0  0  0  0  0
   10.5452   13.7150   25.4649 O   0  0  0  0  0  0  0  0  0  0  0  0
   10.5333   13.7115   23.0918 N   0  0  0  0  0  0  0  0  0  0  0  0
   11.5059   14.7457   22.6182 C   0  0  0  0  0  0  0  0  0  0  0  0
   11.8559   14.7369   21.1347 C   0  0  0  0  0  0  0  0  0  0  0  0
   10.6825   15.2374   20.4785 N   0  0  0  0  0  0  0  0  0  0  0  0
   10.7578   16.1398   19.4909 N   0  0  0  0  0  0  0  0  0  0  0  0
    9.6976   16.9012   19.7706 C   0  0  0  0  0  0  0  0  0  0  0  0
    8.9266   16.4754   20.7994 N   0  0  0  0  0  0  0  0  0  0  0  0
    9.5673   15.4156   21.2337 C   0  0  0  0  0  0  0  0  0  0  0  0
    9.4731   14.7939   22.5847 C   0  0  1  0  0  0  0  0  0  0  0  0
    7.9588   14.2783   22.7382 C   0  0  0  0  0  0  0  0  0  0  0  0
    7.3968   14.6856   23.8046 O   0  0  0  0  0  0  0  0  0  0  0  0
    7.4994   13.4735   21.8727 O   0  0  0  0  0  0  0  0  0  0  0  0
    8.2112   11.7999   25.0867 C   0  0  0  0  0  0  0  0  0  0  0  0
    7.3841   12.5138   25.9787 C   0  0  0  0  0  0  0  0  0  0  0  0
    6.3617   11.8377   26.6314 C   0  0  0  0  0  0  0  0  0  0  0  0
    5.6055   12.4778   27.5347 F   0  0  0  0  0  0  0  0  0  0  0  0
    6.1422   10.4887   26.4099 C   0  0  0  0  0  0  0  0  0  0  0  0
    6.9148    9.7896   25.4805 C   0  0  0  0  0  0  0  0  0  0  0  0
    7.9460   10.4609   24.8251 C   0  0  0  0  0  0  0  0  0  0  0  0
  1  2  1  0
  2  3  1  0
  3  4  2  0
  4  5  1  0
  5  6  2  0
  5  7  1  0
  7  8  1  0
  8  9  1  0
  9 10  1  0
 10 11  1  0
 11 12  2  0
 12 13  1  0
 13 14  2  0
 14 15  1  0
 15 16  1  6
 16 17  2  0
 16 18  1  0
  4 19  1  0
 19 20  2  0
 20 21  1  0
 21 22  1  0
 21 23  2  0
 23 24  1  0
 24 25  2  0
 25  2  1  0
 15  7  1  0
 25 19  1  0
 14 10  1  0
M  CHG  1  18  -1
M  END
>  <alias>  (59) 
None

>  <rmsd(smina/fragmenstein)>  (59) 
0.356

>  <smiles>  (59) 
Cn1nc(C(=O)N2CCn3ncnc3[C@H]2C(=O)[O-])c2cc(F)ccc21

>  <gnina_score>  (59) 
6.068

>  <inspiration_score>  (59) 
None

>  <energy_score>  (59) 
-15.747363

>  <distance_score>  (59) 
0.889616

>  <gnina_score_min>  (59) 
5.975

>  <inchikey>  (59) 
MCDJOTMSFMGGSJ-LBPRGKRZSA-M

>  <exports>  (59) 
['/opt/xchem-fragalysis-2/maxwin/BulkDock/OUTPUTS/openbind_a71ev2a_c2_elabs_1LOUU54.sdf', '/opt/xchem-fragalysis-2/maxwin/BulkDock/OUTPUTS/openbind_a71ev2a_c2_elabs_1LSYIDY.sdf']

>  <name>  (59) 
P537218

>  <ref_pdb>  (59) 
A3181a

>  <subsites>  (59) 
None

>  <HIPPO Pose ID>  (59) 
537218

>  <ref_mols>  (59) 
A3181a

>  <HIPPO Compound ID>  (59) 
299819

>  <tags>  (59) 
openbind_a71ev2a_c2_elabs,syndirella_product,openbind_a71ev2a_c2_elabs_scored,BulkDock Fragalysis export,openbind_a71ev2a_c2_elabs_scored_top80percent,openbind_a71ev2a_c2_elabs_scored_top80percent_despaghettified,syndirella_placed,openbind_a71ev2a_c1_elabs_filtered

>  <smina_score_min>  (59) 
-8.49

$$$$
P537220
     RDKit          3D

 25 27  0  0  0  0  0  0  0  0999 V2000
    9.0856    9.0911   23.3351 C   0  0  0  0  0  0  0  0  0  0  0  0
    8.7015   10.3387   23.9576 N   0  0  0  0  0  0  0  0  0  0  0  0
    9.3768   11.4475   23.6271 N   0  0  0  0  0  0  0  0  0  0  0  0
    8.8384   12.4088   24.4098 C   0  0  0  0  0  0  0  0  0  0  0  0
    9.4419   13.7379   24.4556 C   0  0  0  0  0  0  0  0  0  0  0  0
    9.1271   14.5717   25.1992 O   0  0  0  0  0  0  0  0  0  0  0  0
   10.5648   13.7014   23.4332 N   0  0  0  0  0  0  0  0  0  0  0  0
   11.4803   14.7041   23.0362 C   0  0  0  0  0  0  0  0  0  0  0  0
   11.7083   14.7108   21.5396 C   0  0  1  0  0  0  0  0  0  0  0  0
   10.6801   15.3408   20.7503 N   0  0  0  0  0  0  0  0  0  0  0  0
   10.6109   15.4158   19.3934 C   0  0  0  0  0  0  0  0  0  0  0  0
    9.7925   16.3839   19.0597 N   0  0  0  0  0  0  0  0  0  0  0  0
    9.3753   16.8761   20.2634 C   0  0  0  0  0  0  0  0  0  0  0  0
    9.8248   16.2007   21.3184 N   0  0  0  0  0  0  0  0  0  0  0  0
   12.9535   15.4754   21.3184 C   0  0  0  0  0  0  0  0  0  0  0  0
   12.7899   16.7961   21.4353 F   0  0  0  0  0  0  0  0  0  0  0  0
   13.4446   15.1725   20.1083 F   0  0  0  0  0  0  0  0  0  0  0  0
   13.8524   15.1453   22.2544 F   0  0  0  0  0  0  0  0  0  0  0  0
    7.7755   11.9284   25.1885 C   0  0  0  0  0  0  0  0  0  0  0  0
    6.8973   12.4865   26.1346 C   0  0  0  0  0  0  0  0  0  0  0  0
    6.0254   11.6374   26.8018 C   0  0  0  0  0  0  0  0  0  0  0  0
    5.2019   12.1337   27.7344 F   0  0  0  0  0  0  0  0  0  0  0  0
    6.0141   10.2763   26.5473 C   0  0  0  0  0  0  0  0  0  0  0  0
    6.8583    9.7280   25.5800 C   0  0  0  0  0  0  0  0  0  0  0  0
    7.7398   10.5669   24.9111 C   0  0  0  0  0  0  0  0  0  0  0  0
  1  2  1  0
  2  3  1  0
  3  4  2  0
  4  5  1  0
  5  6  2  0
  5  7  1  0
  7  8  1  0
  9  8  1  1
  9 10  1  0
 10 11  1  0
 11 12  2  0
 12 13  1  0
 13 14  2  0
  9 15  1  0
 15 16  1  0
 15 17  1  0
 15 18  1  0
  4 19  1  0
 19 20  2  0
 20 21  1  0
 21 22  1  0
 21 23  2  0
 23 24  1  0
 24 25  2  0
 25  2  1  0
 14 10  1  0
 25 19  1  0
M  END
>  <alias>  (60) 
None

>  <rmsd(smina/fragmenstein)>  (60) 
0.985

>  <smiles>  (60) 
Cn1nc(C(=O)NC[C@@H](n2cncn2)C(F)(F)F)c2cc(F)ccc21

>  <gnina_score>  (60) 
6.13

>  <inspiration_score>  (60) 
None

>  <energy_score>  (60) 
-23.612554

>  <distance_score>  (60) 
0.692109

>  <gnina_score_min>  (60) 
5.84

>  <inchikey>  (60) 
VFTTWDVHDNVEKD-LLVKDONJSA-N

>  <exports>  (60) 
['/opt/xchem-fragalysis-2/maxwin/BulkDock/OUTPUTS/openbind_a71ev2a_c2_elabs_1LOUU54.sdf', '/opt/xchem-fragalysis-2/maxwin/BulkDock/OUTPUTS/openbind_a71ev2a_c2_elabs_1LSYIDY.sdf']

>  <name>  (60) 
P537220

>  <ref_pdb>  (60) 
A3181a

>  <subsites>  (60) 
None

>  <HIPPO Pose ID>  (60) 
537220

>  <ref_mols>  (60) 
A3181a

>  <HIPPO Compound ID>  (60) 
299816

>  <tags>  (60) 
openbind_a71ev2a_c2_elabs,syndirella_product,openbind_a71ev2a_c2_elabs_scored,BulkDock Fragalysis export,openbind_a71ev2a_c2_elabs_scored_top80percent,openbind_a71ev2a_c2_elabs_scored_top80percent_despaghettified,syndirella_placed,openbind_a71ev2a_c1_elabs_filtered

>  <smina_score_min>  (60) 
-7.35

$$$$
P537221
     RDKit          3D

 25 27  0  0  0  0  0  0  0  0999 V2000
    8.0822   19.7175   19.1145 C   0  0  0  0  0  0  0  0  0  0  0  0
    8.3924   18.3526   19.2068 O   0  0  0  0  0  0  0  0  0  0  0  0
    9.1245   18.0696   20.3194 C   0  0  0  0  0  0  0  0  0  0  0  0
    9.2283   18.8310   21.2720 O   0  0  0  0  0  0  0  0  0  0  0  0
    9.8420   16.8003   20.1780 C   0  0  0  0  0  0  0  0  0  0  0  0
    9.9052   16.0799   18.9936 N   0  0  0  0  0  0  0  0  0  0  0  0
   10.8456   15.1948   19.2204 C   0  0  0  0  0  0  0  0  0  0  0  0
   11.2851   15.3257   20.4926 N   0  0  0  0  0  0  0  0  0  0  0  0
   12.4023   14.6717   21.1245 C   0  0  0  0  0  0  0  0  0  0  0  0
   12.2076   14.4676   22.6193 C   0  0  0  0  0  0  0  0  0  0  0  0
   11.1354   13.5737   22.9502 N   0  0  0  0  0  0  0  0  0  0  0  0
   10.0837   13.6479   24.0644 C   0  0  0  0  0  0  0  0  0  0  0  0
    9.8694   14.4843   24.8462 O   0  0  0  0  0  0  0  0  0  0  0  0
    9.3533   12.3676   24.0837 C   0  0  0  0  0  0  0  0  0  0  0  0
    9.7923   11.3192   23.3605 N   0  0  0  0  0  0  0  0  0  0  0  0
    9.0093   10.2960   23.7406 N   0  0  0  0  0  0  0  0  0  0  0  0
    9.2687    8.9872   23.1854 C   0  0  0  0  0  0  0  0  0  0  0  0
    8.0649   10.6486   24.6722 C   0  0  0  0  0  0  0  0  0  0  0  0
    7.1034    9.9102   25.3667 C   0  0  0  0  0  0  0  0  0  0  0  0
    6.2863   10.5835   26.2763 C   0  0  0  0  0  0  0  0  0  0  0  0
    6.4144   11.9526   26.4572 C   0  0  0  0  0  0  0  0  0  0  0  0
    5.6224   12.5680   27.3458 F   0  0  0  0  0  0  0  0  0  0  0  0
    7.3733   12.6912   25.7682 C   0  0  0  0  0  0  0  0  0  0  0  0
    8.2272   12.0176   24.8731 C   0  0  0  0  0  0  0  0  0  0  0  0
   10.6508   16.3099   21.1281 N   0  0  0  0  0  0  0  0  0  0  0  0
  1  2  1  0
  2  3  1  0
  3  4  2  0
  3  5  1  0
  5  6  1  0
  6  7  2  0
  7  8  1  0
  8  9  1  0
  9 10  1  0
 10 11  1  0
 11 12  1  0
 12 13  2  0
 12 14  1  0
 14 15  2  0
 15 16  1  0
 16 17  1  0
 16 18  1  0
 18 19  2  0
 19 20  1  0
 20 21  2  0
 21 22  1  0
 21 23  1  0
 23 24  2  0
  8 25  1  0
 25  5  2  0
 24 14  1  0
 24 18  1  0
M  END
>  <alias>  (61) 
None

>  <rmsd(smina/fragmenstein)>  (61) 
0.183

>  <smiles>  (61) 
COC(=O)c1ncn(CCNC(=O)c2nn(C)c3ccc(F)cc23)n1

>  <gnina_score>  (61) 
6.222

>  <inspiration_score>  (61) 
None

>  <energy_score>  (61) 
-13.273434

>  <distance_score>  (61) 
0.230973

>  <gnina_score_min>  (61) 
6.249

>  <inchikey>  (61) 
OISMTGZGLXVQDY-UHFFFAOYSA-N

>  <exports>  (61) 
['/opt/xchem-fragalysis-2/maxwin/BulkDock/OUTPUTS/openbind_a71ev2a_c2_elabs_1LOUU54.sdf', '/opt/xchem-fragalysis-2/maxwin/BulkDock/OUTPUTS/openbind_a71ev2a_c2_elabs_1LSYIDY.sdf']

>  <name>  (61) 
P537221

>  <ref_pdb>  (61) 
A3181a

>  <subsites>  (61) 
None

>  <HIPPO Pose ID>  (61) 
537221

>  <ref_mols>  (61) 
A3181a

>  <HIPPO Compound ID>  (61) 
299818

>  <tags>  (61) 
openbind_a71ev2a_c2_elabs,syndirella_product,openbind_a71ev2a_c2_elabs_scored,BulkDock Fragalysis export,openbind_a71ev2a_c2_elabs_scored_top80percent,openbind_a71ev2a_c2_elabs_scored_6plus,openbind_a71ev2a_c2_elabs_scored_top80percent_despaghettified,syndirella_placed,openbind_a71ev2a_c1_elabs_filtered

>  <smina_score_min>  (61) 
-7.367

$$$$
P537222
     RDKit          3D

 25 28  0  0  0  0  0  0  0  0999 V2000
    8.6176   19.7074   19.9568 C   0  0  0  0  0  0  0  0  0  0  0  0
    8.4067   18.2817   19.6219 C   0  0  0  0  0  0  0  0  0  0  0  0
    9.5172   17.3682   19.8581 C   0  0  0  0  0  0  0  0  0  0  0  0
    9.9112   16.4388   18.9412 N   0  0  0  0  0  0  0  0  0  0  0  0
   10.7919   15.7464   19.6142 C   0  0  0  0  0  0  0  0  0  0  0  0
   10.8572   16.2057   20.8865 N   0  0  0  0  0  0  0  0  0  0  0  0
   10.0206   17.2069   21.0763 N   0  0  0  0  0  0  0  0  0  0  0  0
   11.8142   15.8158   21.8820 C   0  0  0  0  0  0  0  0  0  0  0  0
   12.1756   14.3641   21.6989 C   0  0  1  0  0  0  0  0  0  0  0  0
   11.1416   13.4849   22.2084 N   0  0  0  0  0  0  0  0  0  0  0  0
   10.3213   13.5518   23.5195 C   0  0  0  0  0  0  0  0  0  0  0  0
   10.2964   14.3670   24.3561 O   0  0  0  0  0  0  0  0  0  0  0  0
    9.5408   12.3072   23.6920 C   0  0  0  0  0  0  0  0  0  0  0  0
    9.8686   11.1924   23.0201 N   0  0  0  0  0  0  0  0  0  0  0  0
    9.1141   10.2287   23.5676 N   0  0  0  0  0  0  0  0  0  0  0  0
    9.3326    8.8682   23.1416 C   0  0  0  0  0  0  0  0  0  0  0  0
    8.2195   10.6872   24.4990 C   0  0  0  0  0  0  0  0  0  0  0  0
    7.2491   10.0399   25.2746 C   0  0  0  0  0  0  0  0  0  0  0  0
    6.4941   10.8158   26.1550 C   0  0  0  0  0  0  0  0  0  0  0  0
    6.7069   12.1846   26.2437 C   0  0  0  0  0  0  0  0  0  0  0  0
    5.9828   12.8989   27.1160 F   0  0  0  0  0  0  0  0  0  0  0  0
    7.6785   12.8276   25.4755 C   0  0  0  0  0  0  0  0  0  0  0  0
    8.4563   12.0592   24.5871 C   0  0  0  0  0  0  0  0  0  0  0  0
   12.5897   14.1608   20.2298 C   0  0  0  0  0  0  0  0  0  0  0  0
   11.6222   14.6460   19.1523 C   0  0  0  0  0  0  0  0  0  0  0  0
  1  2  1  0
  2  3  1  0
  3  4  1  0
  4  5  2  0
  5  6  1  0
  6  7  1  0
  6  8  1  0
  8  9  1  0
  9 10  1  6
 10 11  1  0
 11 12  2  0
 11 13  1  0
 13 14  2  0
 14 15  1  0
 15 16  1  0
 15 17  1  0
 17 18  2  0
 18 19  1  0
 19 20  2  0
 20 21  1  0
 20 22  1  0
 22 23  2  0
  9 24  1  0
 24 25  1  0
  7  3  2  0
 23 13  1  0
 25  5  1  0
 23 17  1  0
M  END
>  <alias>  (62) 
None

>  <rmsd(smina/fragmenstein)>  (62) 
0.196

>  <smiles>  (62) 
CCc1nc2n(n1)C[C@@H](NC(=O)c1nn(C)c3ccc(F)cc13)CC2

>  <gnina_score>  (62) 
6.324

>  <inspiration_score>  (62) 
None

>  <energy_score>  (62) 
-33.669691

>  <distance_score>  (62) 
0.567761

>  <gnina_score_min>  (62) 
6.258

>  <inchikey>  (62) 
WFIBCPWSXSASKQ-NSHDSACASA-N

>  <exports>  (62) 
['/opt/xchem-fragalysis-2/maxwin/BulkDock/OUTPUTS/openbind_a71ev2a_c2_elabs_1LOUU54.sdf', '/opt/xchem-fragalysis-2/maxwin/BulkDock/OUTPUTS/openbind_a71ev2a_c2_elabs_1LSYIDY.sdf']

>  <name>  (62) 
P537222

>  <ref_pdb>  (62) 
A3181a

>  <subsites>  (62) 
None

>  <HIPPO Pose ID>  (62) 
537222

>  <ref_mols>  (62) 
A3181a

>  <HIPPO Compound ID>  (62) 
299814

>  <tags>  (62) 
openbind_a71ev2a_c2_elabs,syndirella_product,openbind_a71ev2a_c2_elabs_scored,BulkDock Fragalysis export,openbind_a71ev2a_c2_elabs_scored_top80percent,openbind_a71ev2a_c2_elabs_scored_6plus,openbind_a71ev2a_c2_elabs_scored_top80percent_despaghettified,syndirella_placed,openbind_a71ev2a_c1_elabs_filtered

>  <smina_score_min>  (62) 
-5.33

$$$$
P537240
     RDKit          3D

 26 29  0  0  0  0  0  0  0  0999 V2000
    9.3187    9.0152   23.2051 C   0  0  0  0  0  0  0  0  0  0  0  0
    9.0312   10.3247   23.7431 N   0  0  0  0  0  0  0  0  0  0  0  0
    9.8023   11.3556   23.3603 N   0  0  0  0  0  0  0  0  0  0  0  0
    9.3573   12.3984   24.0897 C   0  0  0  0  0  0  0  0  0  0  0  0
   10.0954   13.6773   24.1093 C   0  0  0  0  0  0  0  0  0  0  0  0
    9.8411   14.5113   24.8816 O   0  0  0  0  0  0  0  0  0  0  0  0
   11.2154   13.5978   23.0634 N   0  0  0  0  0  0  0  0  0  0  0  0
   12.2036   14.5660   22.6793 C   0  0  0  0  0  0  0  0  0  0  0  0
   12.4037   14.7013   21.1786 C   0  0  0  0  0  0  0  0  0  0  0  0
   11.2848   15.2929   20.4920 N   0  0  0  0  0  0  0  0  0  0  0  0
   10.9265   15.1187   19.1980 C   0  0  0  0  0  0  0  0  0  0  0  0
    9.9682   15.9581   18.8947 N   0  0  0  0  0  0  0  0  0  0  0  0
    9.8285   16.7027   20.0431 C   0  0  0  0  0  0  0  0  0  0  0  0
    9.0875   17.9630   20.0056 C   0  0  0  0  0  0  0  0  0  0  0  0
    8.3651   18.3015   18.8901 N   0  0  0  0  0  0  0  0  0  0  0  0
    8.0413   19.5666   18.9958 N   0  0  0  0  0  0  0  0  0  0  0  0
    8.6107   19.9261   20.1422 N   0  0  0  0  0  0  0  0  0  0  0  0
    9.2071   18.9770   20.8647 N   0  0  0  0  0  0  0  0  0  0  0  0
   10.5842   16.2761   21.0623 N   0  0  0  0  0  0  0  0  0  0  0  0
    8.2231   12.0383   24.8658 C   0  0  0  0  0  0  0  0  0  0  0  0
    7.3603   12.7021   25.7598 C   0  0  0  0  0  0  0  0  0  0  0  0
    6.4074   11.9536   26.4464 C   0  0  0  0  0  0  0  0  0  0  0  0
    5.6068   12.5603   27.3329 F   0  0  0  0  0  0  0  0  0  0  0  0
    6.2950   10.5827   26.2668 C   0  0  0  0  0  0  0  0  0  0  0  0
    7.1212    9.9177   25.3593 C   0  0  0  0  0  0  0  0  0  0  0  0
    8.0751   10.6674   24.6654 C   0  0  0  0  0  0  0  0  0  0  0  0
  1  2  1  0
  2  3  1  0
  3  4  2  0
  4  5  1  0
  5  6  2  0
  5  7  1  0
  7  8  1  0
  8  9  1  0
  9 10  1  0
 10 11  1  0
 11 12  2  0
 12 13  1  0
 13 14  1  0
 14 15  1  0
 15 16  2  0
 16 17  1  0
 17 18  1  0
 13 19  2  0
  4 20  1  0
 20 21  2  0
 21 22  1  0
 22 23  1  0
 22 24  2  0
 24 25  1  0
 25 26  2  0
 26  2  1  0
 19 10  1  0
 26 20  1  0
 18 14  2  0
M  END
>  <alias>  (63) 
None

>  <rmsd(smina/fragmenstein)>  (63) 
0.333

>  <smiles>  (63) 
Cn1nc(C(=O)NCCn2cnc(-c3nn[nH]n3)n2)c2cc(F)ccc21

>  <gnina_score>  (63) 
6.612

>  <inspiration_score>  (63) 
None

>  <energy_score>  (63) 
-36.481793

>  <distance_score>  (63) 
0.276828

>  <gnina_score_min>  (63) 
6.63

>  <inchikey>  (63) 
UUHOGOIZMOFYNY-UHFFFAOYSA-N

>  <exports>  (63) 
['/opt/xchem-fragalysis-2/maxwin/BulkDock/OUTPUTS/openbind_a71ev2a_c2_elabs_1LOUU54.sdf', '/opt/xchem-fragalysis-2/maxwin/BulkDock/OUTPUTS/openbind_a71ev2a_c2_elabs_1LSYIDY.sdf']

>  <name>  (63) 
P537240

>  <ref_pdb>  (63) 
A3181a

>  <subsites>  (63) 
None

>  <HIPPO Pose ID>  (63) 
537240

>  <ref_mols>  (63) 
A3181a

>  <HIPPO Compound ID>  (63) 
299835

>  <tags>  (63) 
openbind_a71ev2a_c2_elabs,syndirella_product,openbind_a71ev2a_c2_elabs_scored,BulkDock Fragalysis export,openbind_a71ev2a_c2_elabs_scored_top80percent,openbind_a71ev2a_c2_elabs_scored_6plus,openbind_a71ev2a_c2_elabs_scored_top80percent_despaghettified,syndirella_placed,openbind_a71ev2a_c1_elabs_filtered

>  <smina_score_min>  (63) 
-8.394

$$$$
P537241
     RDKit          3D

 26 29  0  0  0  0  0  0  0  0999 V2000
    8.7321   18.9215   19.9015 C   0  0  0  0  0  0  0  0  0  0  0  0
    9.6535   17.9575   20.3980 O   0  0  0  0  0  0  0  0  0  0  0  0
    9.8902   16.9035   19.5751 C   0  0  0  0  0  0  0  0  0  0  0  0
    9.2840   16.6382   18.5517 O   0  0  0  0  0  0  0  0  0  0  0  0
   10.9811   16.0587   19.9889 C   0  0  0  0  0  0  0  0  0  0  0  0
   11.5330   15.1335   19.1347 N   0  0  0  0  0  0  0  0  0  0  0  0
   12.3508   14.4868   19.9145 C   0  0  0  0  0  0  0  0  0  0  0  0
   12.2448   14.9583   21.1842 N   0  0  0  0  0  0  0  0  0  0  0  0
   12.0848   14.0062   22.2678 C   0  0  0  0  0  0  0  0  0  0  0  0
   12.0077   14.5342   23.6626 C   0  0  0  0  0  0  0  0  0  0  0  0
   10.9263   13.5195   23.9508 N   0  0  0  0  0  0  0  0  0  0  0  0
    9.7056   13.6125   24.8030 C   0  0  0  0  0  0  0  0  0  0  0  0
    9.2553   14.5261   25.3906 O   0  0  0  0  0  0  0  0  0  0  0  0
    9.0347   12.3067   24.7153 C   0  0  0  0  0  0  0  0  0  0  0  0
    9.5036   11.3255   23.9195 N   0  0  0  0  0  0  0  0  0  0  0  0
    8.6919   10.2890   24.1251 N   0  0  0  0  0  0  0  0  0  0  0  0
    8.9653    9.0641   23.4078 C   0  0  0  0  0  0  0  0  0  0  0  0
    7.7157   10.5614   25.0499 C   0  0  0  0  0  0  0  0  0  0  0  0
    6.7319    9.7822   25.6455 C   0  0  0  0  0  0  0  0  0  0  0  0
    5.9074   10.3702   26.6057 C   0  0  0  0  0  0  0  0  0  0  0  0
    6.0095   11.7206   26.8928 C   0  0  0  0  0  0  0  0  0  0  0  0
    5.1888   12.2571   27.8056 F   0  0  0  0  0  0  0  0  0  0  0  0
    6.9734   12.5135   26.2874 C   0  0  0  0  0  0  0  0  0  0  0  0
    7.8659   11.9037   25.3872 C   0  0  0  0  0  0  0  0  0  0  0  0
   10.6144   13.8360   22.4960 C   0  0  0  0  0  0  0  0  0  0  0  0
   11.5568   16.1006   21.2010 N   0  0  0  0  0  0  0  0  0  0  0  0
  1  2  1  0
  2  3  1  0
  3  4  2  0
  3  5  1  0
  5  6  1  0
  6  7  2  0
  7  8  1  0
  8  9  1  0
  9 10  1  0
 10 11  1  0
 11 12  1  0
 12 13  2  0
 12 14  1  0
 14 15  2  0
 15 16  1  0
 16 17  1  0
 16 18  1  0
 18 19  2  0
 19 20  1  0
 20 21  2  0
 21 22  1  0
 21 23  1  0
 23 24  2  0
 11 25  1  0
  8 26  1  0
 26  5  2  0
 25  9  1  0
 24 14  1  0
 24 18  1  0
M  END
>  <alias>  (64) 
None

>  <rmsd(smina/fragmenstein)>  (64) 
0.275

>  <smiles>  (64) 
COC(=O)c1ncn(C2CN(C(=O)c3nn(C)c4ccc(F)cc34)C2)n1

>  <gnina_score>  (64) 
6.181

>  <inspiration_score>  (64) 
None

>  <energy_score>  (64) 
-1.456894

>  <distance_score>  (64) 
1.104619

>  <gnina_score_min>  (64) 
6.18

>  <inchikey>  (64) 
UGXRHTOVWXZEJA-UHFFFAOYSA-N

>  <exports>  (64) 
['/opt/xchem-fragalysis-2/maxwin/BulkDock/OUTPUTS/openbind_a71ev2a_c2_elabs_1LOUU54.sdf', '/opt/xchem-fragalysis-2/maxwin/BulkDock/OUTPUTS/openbind_a71ev2a_c2_elabs_1LSYIDY.sdf']

>  <name>  (64) 
P537241

>  <ref_pdb>  (64) 
A3181a

>  <subsites>  (64) 
None

>  <HIPPO Pose ID>  (64) 
537241

>  <ref_mols>  (64) 
A3181a

>  <HIPPO Compound ID>  (64) 
299834

>  <tags>  (64) 
openbind_a71ev2a_c2_elabs,syndirella_product,openbind_a71ev2a_c2_elabs_scored,BulkDock Fragalysis export,openbind_a71ev2a_c2_elabs_scored_top80percent,openbind_a71ev2a_c2_elabs_scored_6plus,openbind_a71ev2a_c2_elabs_scored_top80percent_despaghettified,syndirella_placed,openbind_a71ev2a_c1_elabs_filtered

>  <smina_score_min>  (64) 
-7.46

$$$$
P537242
     RDKit          3D

 26 29  0  0  0  0  0  0  0  0999 V2000
   11.4940   14.9807   17.8687 C   0  0  0  0  0  0  0  0  0  0  0  0
   12.5867   14.8411   18.7332 O   0  0  0  0  0  0  0  0  0  0  0  0
   12.2557   14.5226   19.9895 C   0  0  0  0  0  0  0  0  0  0  0  0
   12.8535   13.6439   20.5869 O   0  0  0  0  0  0  0  0  0  0  0  0
   11.2250   15.3333   20.5546 C   0  0  0  0  0  0  0  0  0  0  0  0
   10.3745   16.1445   19.9416 N   0  0  0  0  0  0  0  0  0  0  0  0
    9.5439   16.5195   20.9404 C   0  0  0  0  0  0  0  0  0  0  0  0
    9.8364   15.9733   22.1166 N   0  0  0  0  0  0  0  0  0  0  0  0
   10.9666   15.3345   21.8831 N   0  0  0  0  0  0  0  0  0  0  0  0
   11.8498   14.6977   22.8665 C   0  0  0  0  0  0  0  0  0  0  0  0
   11.6048   14.7338   24.3358 C   0  0  0  0  0  0  0  0  0  0  0  0
   10.6614   13.5924   24.3262 N   0  0  0  0  0  0  0  0  0  0  0  0
    9.1836   13.5429   24.0450 C   0  0  0  0  0  0  0  0  0  0  0  0
    8.4481   14.3883   23.6902 O   0  0  0  0  0  0  0  0  0  0  0  0
    8.7299   12.1916   24.2286 C   0  0  0  0  0  0  0  0  0  0  0  0
    9.3002   11.1495   23.6080 N   0  0  0  0  0  0  0  0  0  0  0  0
    8.6104   10.0962   24.0551 N   0  0  0  0  0  0  0  0  0  0  0  0
    9.0056    8.7856   23.6007 C   0  0  0  0  0  0  0  0  0  0  0  0
    7.6454   10.4401   24.9732 C   0  0  0  0  0  0  0  0  0  0  0  0
    6.7285    9.7097   25.7142 C   0  0  0  0  0  0  0  0  0  0  0  0
    5.9206   10.3731   26.6397 C   0  0  0  0  0  0  0  0  0  0  0  0
    5.9770   11.7504   26.7597 C   0  0  0  0  0  0  0  0  0  0  0  0
    5.1819   12.3622   27.6472 F   0  0  0  0  0  0  0  0  0  0  0  0
    6.8491   12.5012   25.9861 C   0  0  0  0  0  0  0  0  0  0  0  0
    7.6997   11.8187   25.0977 C   0  0  0  0  0  0  0  0  0  0  0  0
   11.4968   13.2677   23.0501 C   0  0  0  0  0  0  0  0  0  0  0  0
  1  2  1  0
  2  3  1  0
  3  4  2  0
  3  5  1  0
  5  6  2  0
  6  7  1  0
  7  8  2  0
  8  9  1  0
  9 10  1  0
 10 11  1  0
 11 12  1  0
 12 13  1  0
 13 14  2  0
 13 15  1  0
 15 16  2  0
 16 17  1  0
 17 18  1  0
 17 19  1  0
 19 20  2  0
 20 21  1  0
 21 22  2  0
 22 23  1  0
 22 24  1  0
 24 25  2  0
 12 26  1  0
  9  5  1  0
 26 10  1  0
 25 15  1  0
 25 19  1  0
M  END
>  <alias>  (65) 
None

>  <rmsd(smina/fragmenstein)>  (65) 
2.633

>  <smiles>  (65) 
COC(=O)c1ncnn1C1CN(C(=O)c2nn(C)c3ccc(F)cc23)C1

>  <gnina_score>  (65) 
5.938

>  <inspiration_score>  (65) 
None

>  <energy_score>  (65) 
-3.070213

>  <distance_score>  (65) 
1.138296

>  <gnina_score_min>  (65) 
5.238

>  <inchikey>  (65) 
JRKJYFSGMWAXAJ-UHFFFAOYSA-N

>  <exports>  (65) 
['/opt/xchem-fragalysis-2/maxwin/BulkDock/OUTPUTS/openbind_a71ev2a_c2_elabs_1LOUU54.sdf', '/opt/xchem-fragalysis-2/maxwin/BulkDock/OUTPUTS/openbind_a71ev2a_c2_elabs_1LSYIDY.sdf']

>  <name>  (65) 
P537242

>  <ref_pdb>  (65) 
A3181a

>  <subsites>  (65) 
None

>  <HIPPO Pose ID>  (65) 
537242

>  <ref_mols>  (65) 
A3181a

>  <HIPPO Compound ID>  (65) 
299830

>  <tags>  (65) 
openbind_a71ev2a_c2_elabs,syndirella_product,openbind_a71ev2a_c2_elabs_scored,BulkDock Fragalysis export,openbind_a71ev2a_c2_elabs_scored_top80percent,openbind_a71ev2a_c2_elabs_scored_top80percent_despaghettified,syndirella_placed,openbind_a71ev2a_c1_elabs_filtered

>  <smina_score_min>  (65) 
-7.091

$$$$
P537244
     RDKit          3D

 26 29  0  0  0  0  0  0  0  0999 V2000
    9.1437    8.9430   23.2186 C   0  0  0  0  0  0  0  0  0  0  0  0
    8.8894   10.2412   23.7992 N   0  0  0  0  0  0  0  0  0  0  0  0
    9.6793   11.2585   23.4375 N   0  0  0  0  0  0  0  0  0  0  0  0
    9.2559   12.3002   24.1782 C   0  0  0  0  0  0  0  0  0  0  0  0
   10.0420   13.5417   24.2161 C   0  0  0  0  0  0  0  0  0  0  0  0
    9.7532   14.4479   24.8872 O   0  0  0  0  0  0  0  0  0  0  0  0
   11.2613   13.3201   23.3186 N   0  0  0  0  0  0  0  0  0  0  0  0
   12.4292   14.1190   23.1254 C   0  0  0  0  0  0  0  0  0  0  0  0
   12.6498   14.4630   21.6600 C   0  0  0  0  0  0  0  0  0  0  0  0
   11.6070   15.2865   21.1677 N   0  0  0  0  0  0  0  0  0  0  0  0
   11.2977   16.4442   21.8056 N   0  0  0  0  0  0  0  0  0  0  0  0
   10.4604   17.0475   21.0320 C   0  0  0  0  0  0  0  0  0  0  0  0
    9.8161   18.3904   21.1284 C   0  0  0  0  0  0  0  0  0  0  0  0
    8.9566   18.8084   20.2177 C   0  0  0  0  0  0  0  0  0  0  0  0
    8.6896   17.9317   19.1622 C   0  0  0  0  0  0  0  0  0  0  0  0
    9.3201   16.7417   19.0229 C   0  0  0  0  0  0  0  0  0  0  0  0
   10.2005   16.3417   19.9247 N   0  0  0  0  0  0  0  0  0  0  0  0
   11.0245   15.2500   19.9116 C   0  0  0  0  0  0  0  0  0  0  0  0
   11.2486   14.4784   18.9934 O   0  0  0  0  0  0  0  0  0  0  0  0
    8.1164   11.9621   24.9453 C   0  0  0  0  0  0  0  0  0  0  0  0
    7.2745   12.6368   25.8498 C   0  0  0  0  0  0  0  0  0  0  0  0
    6.3196   11.8995   26.5431 C   0  0  0  0  0  0  0  0  0  0  0  0
    5.5376   12.5126   27.4418 F   0  0  0  0  0  0  0  0  0  0  0  0
    6.1884   10.5314   26.3595 C   0  0  0  0  0  0  0  0  0  0  0  0
    6.9924    9.8600   25.4368 C   0  0  0  0  0  0  0  0  0  0  0  0
    7.9488   10.5945   24.7355 C   0  0  0  0  0  0  0  0  0  0  0  0
  1  2  1  0
  2  3  1  0
  3  4  2  0
  4  5  1  0
  5  6  2  0
  5  7  1  0
  7  8  1  0
  8  9  1  0
  9 10  1  0
 10 11  1  0
 11 12  2  0
 12 13  1  0
 13 14  2  0
 14 15  1  0
 15 16  2  0
 16 17  1  0
 17 18  1  0
 18 19  2  0
  4 20  1  0
 20 21  2  0
 21 22  1  0
 22 23  1  0
 22 24  2  0
 24 25  1  0
 25 26  2  0
 26  2  1  0
 18 10  1  0
 26 20  1  0
 17 12  1  0
M  END
>  <alias>  (66) 
None

>  <rmsd(smina/fragmenstein)>  (66) 
0.379

>  <smiles>  (66) 
Cn1nc(C(=O)NCCn2nc3ccccn3c2=O)c2cc(F)ccc21

>  <gnina_score>  (66) 
6.113

>  <inspiration_score>  (66) 
None

>  <energy_score>  (66) 
-11.114216

>  <distance_score>  (66) 
0.577201

>  <gnina_score_min>  (66) 
6.192

>  <inchikey>  (66) 
TXQDODDQPDFBKQ-UHFFFAOYSA-N

>  <exports>  (66) 
['/opt/xchem-fragalysis-2/maxwin/BulkDock/OUTPUTS/openbind_a71ev2a_c2_elabs_1LOUU54.sdf', '/opt/xchem-fragalysis-2/maxwin/BulkDock/OUTPUTS/openbind_a71ev2a_c2_elabs_1LSYIDY.sdf']

>  <name>  (66) 
P537244

>  <ref_pdb>  (66) 
A3181a

>  <subsites>  (66) 
None

>  <HIPPO Pose ID>  (66) 
537244

>  <ref_mols>  (66) 
A3181a

>  <HIPPO Compound ID>  (66) 
299823

>  <tags>  (66) 
openbind_a71ev2a_c2_elabs,syndirella_product,openbind_a71ev2a_c2_elabs_scored,BulkDock Fragalysis export,openbind_a71ev2a_c2_elabs_scored_top80percent,openbind_a71ev2a_c2_elabs_scored_6plus,openbind_a71ev2a_c2_elabs_scored_top80percent_despaghettified,syndirella_placed,openbind_a71ev2a_c1_elabs_filtered

>  <smina_score_min>  (66) 
-4.347

$$$$
P537420
     RDKit          3D

 20 22  0  0  0  0  0  0  0  0999 V2000
   10.8927   15.2655   19.0886 C   0  0  0  0  0  0  0  0  0  0  0  0
   10.7450   15.2730   20.5046 O   0  0  0  0  0  0  0  0  0  0  0  0
   11.9346   14.8191   21.1451 C   0  0  0  0  0  0  0  0  0  0  0  0
   11.6691   14.5207   22.6101 C   0  0  0  0  0  0  0  0  0  0  0  0
   10.6481   13.5924   22.9033 N   0  0  0  0  0  0  0  0  0  0  0  0
    9.4037   13.7246   23.7989 C   0  0  0  0  0  0  0  0  0  0  0  0
    8.9819   14.6463   24.3766 O   0  0  0  0  0  0  0  0  0  0  0  0
    8.8087   12.3942   23.9277 C   0  0  0  0  0  0  0  0  0  0  0  0
    9.3470   11.3366   23.2923 N   0  0  0  0  0  0  0  0  0  0  0  0
    8.6918   10.2812   23.7944 N   0  0  0  0  0  0  0  0  0  0  0  0
    9.1460    8.9624   23.4246 C   0  0  0  0  0  0  0  0  0  0  0  0
    7.7118   10.6233   24.6933 C   0  0  0  0  0  0  0  0  0  0  0  0
    6.7972    9.8673   25.4272 C   0  0  0  0  0  0  0  0  0  0  0  0
    5.9676   10.5299   26.3337 C   0  0  0  0  0  0  0  0  0  0  0  0
    6.0253   11.9090   26.4624 C   0  0  0  0  0  0  0  0  0  0  0  0
    5.2209   12.5152   27.3462 F   0  0  0  0  0  0  0  0  0  0  0  0
    6.9121   12.6706   25.7077 C   0  0  0  0  0  0  0  0  0  0  0  0
    7.7678   12.0086   24.8056 C   0  0  0  0  0  0  0  0  0  0  0  0
   11.9298   15.5750   23.6591 C   0  0  0  0  0  0  0  0  0  0  0  0
   12.8886   14.4723   23.4999 C   0  0  0  0  0  0  0  0  0  0  0  0
  1  2  1  0
  2  3  1  0
  3  4  1  0
  4  5  1  0
  5  6  1  0
  6  7  2  0
  6  8  1  0
  8  9  2  0
  9 10  1  0
 10 11  1  0
 10 12  1  0
 12 13  2  0
 13 14  1  0
 14 15  2  0
 15 16  1  0
 15 17  1  0
 17 18  2  0
  4 19  1  0
 19 20  1  0
 20  4  1  0
 18  8  1  0
 18 12  1  0
M  END
>  <alias>  (67) 
None

>  <rmsd(smina/fragmenstein)>  (67) 
1.181

>  <smiles>  (67) 
COCC1(NC(=O)c2nn(C)c3ccc(F)cc23)CC1

>  <gnina_score>  (67) 
5.509

>  <inspiration_score>  (67) 
None

>  <energy_score>  (67) 
-31.278001

>  <distance_score>  (67) 
0.389699

>  <gnina_score_min>  (67) 
5.331

>  <inchikey>  (67) 
PVKUWMDAPKUXOC-UHFFFAOYSA-N

>  <exports>  (67) 
['/opt/xchem-fragalysis-2/maxwin/BulkDock/OUTPUTS/openbind_a71ev2a_c2_elabs_1LOUU54.sdf', '/opt/xchem-fragalysis-2/maxwin/BulkDock/OUTPUTS/openbind_a71ev2a_c2_elabs_1LSYIDY.sdf']

>  <name>  (67) 
P537420

>  <ref_pdb>  (67) 
A3176a

>  <subsites>  (67) 
None

>  <HIPPO Pose ID>  (67) 
537420

>  <ref_mols>  (67) 
A3176a

>  <HIPPO Compound ID>  (67) 
370874

>  <tags>  (67) 
openbind_a71ev2a_c2_elabs,syndirella_product,openbind_a71ev2a_c2_elabs_scored,BulkDock Fragalysis export,openbind_a71ev2a_c2_elabs_scored_top80percent,openbind_a71ev2a_c2_elabs_scored_top80percent_despaghettified,syndirella_placed

>  <smina_score_min>  (67) 
-6.709

$$$$
P556131
     RDKit          3D

 24 27  0  0  0  0  0  0  0  0999 V2000
   11.1366   15.6945   18.2125 C   0  0  0  0  0  0  0  0  0  0  0  0
   11.2301   15.4842   19.6117 N   0  0  0  0  0  0  0  0  0  0  0  0
   11.7812   14.3848   20.1623 C   0  0  0  0  0  0  0  0  0  0  0  0
   12.5179   13.5990   19.5977 O   0  0  0  0  0  0  0  0  0  0  0  0
   11.3585   14.2920   21.4702 N   0  0  0  0  0  0  0  0  0  0  0  0
   10.7164   15.5117   21.8834 C   0  0  2  0  0  0  0  0  0  0  0  0
   11.6241   16.2553   22.8297 C   0  0  0  0  0  0  0  0  0  0  0  0
   11.1791   15.9615   24.2417 C   0  0  0  0  0  0  0  0  0  0  0  0
    9.6502   15.9154   24.2950 C   0  0  0  0  0  0  0  0  0  0  0  0
    9.0717   14.6379   23.7302 N   0  0  0  0  0  0  0  0  0  0  0  0
    7.8637   14.2958   24.4256 C   0  0  0  0  0  0  0  0  0  0  0  0
    6.7214   14.5837   24.1928 O   0  0  0  0  0  0  0  0  0  0  0  0
    8.2749   13.4156   25.6248 C   0  0  1  0  0  0  0  0  0  0  0  0
    7.1825   13.6866   27.0732 S   0  0  0  0  0  0  0  0  0  0  0  0
    5.8513   12.5260   26.6170 C   0  0  0  0  0  0  0  0  0  0  0  0
    6.3706   11.0893   26.5394 C   0  0  0  0  0  0  0  0  0  0  0  0
    7.5645   10.9635   25.6392 C   0  0  0  0  0  0  0  0  0  0  0  0
    8.0800    9.4488   25.0816 S   0  0  0  0  0  0  0  0  0  0  0  0
    9.2943   10.1182   24.1032 C   0  0  0  0  0  0  0  0  0  0  0  0
    9.3780   11.4783   24.2793 C   0  0  0  0  0  0  0  0  0  0  0  0
    8.3947   11.9779   25.2052 C   0  0  0  0  0  0  0  0  0  0  0  0
    9.2830   15.3700   22.4280 C   0  0  0  0  0  0  0  0  0  0  0  0
   10.6080   16.2367   20.5474 C   0  0  0  0  0  0  0  0  0  0  0  0
   10.0575   17.3120   20.3707 O   0  0  0  0  0  0  0  0  0  0  0  0
  1  2  1  0
  2  3  1  0
  3  4  2  0
  3  5  1  0
  6  5  1  0
  6  7  1  1
  7  8  1  0
  8  9  1  0
  9 10  1  0
 10 11  1  0
 11 12  2  0
 13 11  1  6
 13 14  1  0
 14 15  1  0
 15 16  1  0
 16 17  1  0
 17 18  1  0
 18 19  1  0
 19 20  2  0
 20 21  1  0
 10 22  1  0
  6 23  1  0
 23 24  2  0
 23  2  1  0
 22  6  1  0
 21 13  1  0
 21 17  2  0
M  END
>  <alias>  (68) 
None

>  <rmsd(smina/fragmenstein)>  (68) 
0.729

>  <smiles>  (68) 
CN1C(=O)N[C@@]2(CCCN(C(=O)[C@H]3SCCc4sccc43)C2)C1=O

>  <gnina_score>  (68) 
6.243

>  <inspiration_score>  (68) 
None

>  <energy_score>  (68) 
-8.39603

>  <distance_score>  (68) 
1.254112

>  <gnina_score_min>  (68) 
6.303

>  <inchikey>  (68) 
CFNWVURQZPDFLO-BLLLJJGKSA-N

>  <exports>  (68) 
['/opt/xchem-fragalysis-2/maxwin/BulkDock/OUTPUTS/openbind_a71ev2a_c2_elabs_1LOUU54.sdf', '/opt/xchem-fragalysis-2/maxwin/BulkDock/OUTPUTS/openbind_a71ev2a_c2_elabs_1LSYIDY.sdf']

>  <name>  (68) 
P556131

>  <ref_pdb>  (68) 
A4877b

>  <subsites>  (68) 
None

>  <HIPPO Pose ID>  (68) 
556131

>  <ref_mols>  (68) 
A4877b

>  <HIPPO Compound ID>  (68) 
338691

>  <tags>  (68) 
openbind_a71ev2a_c2_elabs,syndirella_product,openbind_a71ev2a_c2_elabs_scored,BulkDock Fragalysis export,openbind_a71ev2a_c2_elabs_scored_top80percent,openbind_a71ev2a_c2_elabs_scored_6plus,openbind_a71ev2a_c2_elabs_scored_top80percent_despaghettified,syndirella_placed

>  <smina_score_min>  (68) 
-6.838

$$$$
P556132
     RDKit          3D

 25 27  0  0  0  0  0  0  0  0999 V2000
    9.3859   15.2635   17.9946 C   0  0  0  0  0  0  0  0  0  0  0  0
   11.0826   15.2069   18.4174 S   0  0  0  0  0  0  0  0  0  0  0  0
   11.7428   16.2986   17.7549 O   0  0  0  0  0  0  0  0  0  0  0  0
   11.5868   13.8678   18.3374 O   0  0  0  0  0  0  0  0  0  0  0  0
   10.9519   15.5508   20.0747 N   0  0  0  0  0  0  0  0  0  0  0  0
   10.2847   16.8227   20.3010 C   0  0  0  0  0  0  0  0  0  0  0  0
   10.2503   17.2229   21.7235 C   0  0  0  0  0  0  0  0  0  0  0  0
   11.5830   16.9773   22.4158 C   0  0  0  0  0  0  0  0  0  0  0  0
   12.1010   15.5609   22.3081 C   0  0  1  0  0  0  0  0  0  0  0  0
   11.3721   14.4245   23.0489 C   0  0  0  0  0  0  0  0  0  0  0  0
   11.7050   13.3148   22.9070 O   0  0  0  0  0  0  0  0  0  0  0  0
   10.1765   15.0210   23.8322 N   0  0  0  0  0  0  0  0  0  0  0  0
    9.1874   14.4275   24.4606 N   0  0  0  0  0  0  0  0  0  0  0  0
    7.6674   14.4042   24.1502 C   0  0  0  0  0  0  0  0  0  0  0  0
    7.0524   14.9714   23.3345 O   0  0  0  0  0  0  0  0  0  0  0  0
    7.0409   13.3822   25.0585 C   0  0  2  0  0  0  0  0  0  0  0  0
    7.0856   13.8748   26.8073 S   0  0  0  0  0  0  0  0  0  0  0  0
    5.9147   12.5742   27.3351 C   0  0  0  0  0  0  0  0  0  0  0  0
    6.2820   11.1288   26.9404 C   0  0  0  0  0  0  0  0  0  0  0  0
    7.2391   11.0004   25.7892 C   0  0  0  0  0  0  0  0  0  0  0  0
    7.9386    9.5169   25.3872 S   0  0  0  0  0  0  0  0  0  0  0  0
    8.9425   10.1931   24.2018 C   0  0  0  0  0  0  0  0  0  0  0  0
    8.6766   11.5324   24.0419 C   0  0  0  0  0  0  0  0  0  0  0  0
    7.6513   12.0067   24.9392 C   0  0  0  0  0  0  0  0  0  0  0  0
   12.1913   15.2359   20.8193 C   0  0  0  0  0  0  0  0  0  0  0  0
  1  2  1  0
  2  3  2  0
  2  4  2  0
  2  5  1  0
  5  6  1  0
  6  7  1  0
  7  8  1  0
  8  9  1  0
  9 10  1  1
 10 11  2  0
 10 12  1  0
 12 13  1  0
 13 14  1  0
 14 15  2  0
 16 14  1  6
 16 17  1  0
 17 18  1  0
 18 19  1  0
 19 20  1  0
 20 21  1  0
 21 22  1  0
 22 23  2  0
 23 24  1  0
  9 25  1  0
 25  5  1  0
 24 16  1  0
 24 20  2  0
M  END
>  <alias>  (69) 
None

>  <rmsd(smina/fragmenstein)>  (69) 
3.079

>  <smiles>  (69) 
CS(=O)(=O)N1CCC[C@@H](C(=O)NNC(=O)[C@@H]2SCCc3sccc32)C1

>  <gnina_score>  (69) 
5.826

>  <inspiration_score>  (69) 
None

>  <energy_score>  (69) 
-42.299134

>  <distance_score>  (69) 
1.422218

>  <gnina_score_min>  (69) 
5.09

>  <inchikey>  (69) 
FHXNWZLAZGBTJL-ZWNOBZJWSA-N

>  <exports>  (69) 
['/opt/xchem-fragalysis-2/maxwin/BulkDock/OUTPUTS/openbind_a71ev2a_c2_elabs_1LOUU54.sdf', '/opt/xchem-fragalysis-2/maxwin/BulkDock/OUTPUTS/openbind_a71ev2a_c2_elabs_1LSYIDY.sdf']

>  <name>  (69) 
P556132

>  <ref_pdb>  (69) 
A4877b

>  <subsites>  (69) 
None

>  <HIPPO Pose ID>  (69) 
556132

>  <ref_mols>  (69) 
A4877b

>  <HIPPO Compound ID>  (69) 
338703

>  <tags>  (69) 
openbind_a71ev2a_c2_elabs,syndirella_product,openbind_a71ev2a_c2_elabs_scored,BulkDock Fragalysis export,openbind_a71ev2a_c2_elabs_scored_top80percent,openbind_a71ev2a_c2_elabs_scored_top80percent_despaghettified,syndirella_placed

>  <smina_score_min>  (69) 
-5.844

$$$$
P556133
     RDKit          3D

 26 28  0  0  0  0  0  0  0  0999 V2000
   10.9770   16.6868   18.5754 C   0  0  0  0  0  0  0  0  0  0  0  0
   12.0588   15.7819   18.9944 C   0  0  0  0  0  0  0  0  0  0  0  0
   11.4697   14.2429   19.3194 S   0  0  0  0  0  0  0  0  0  0  0  0
   12.6362   13.4205   19.5206 O   0  0  0  0  0  0  0  0  0  0  0  0
   10.5349   13.9358   18.2712 O   0  0  0  0  0  0  0  0  0  0  0  0
   10.7188   14.5106   20.7843 N   0  0  0  0  0  0  0  0  0  0  0  0
    9.5511   15.3627   20.9436 C   0  0  0  0  0  0  0  0  0  0  0  0
    9.8681   16.6101   21.7674 C   0  0  0  0  0  0  0  0  0  0  0  0
   11.2738   16.6544   22.3859 C   0  0  0  0  0  0  0  0  0  0  0  0
   11.9314   15.3342   22.7719 C   0  0  1  0  0  0  0  0  0  0  0  0
   11.6942   14.9349   24.2215 C   0  0  0  0  0  0  0  0  0  0  0  0
   12.5216   14.6594   24.9949 O   0  0  0  0  0  0  0  0  0  0  0  0
   10.1534   14.8931   24.3447 N   0  0  0  0  0  0  0  0  0  0  0  0
    9.3948   14.4597   25.3075 N   0  0  0  0  0  0  0  0  0  0  0  0
    7.8468   14.4743   25.4568 C   0  0  0  0  0  0  0  0  0  0  0  0
    7.0261   14.9466   24.7749 O   0  0  0  0  0  0  0  0  0  0  0  0
    7.6118   13.6139   26.6860 C   0  0  1  0  0  0  0  0  0  0  0  0
    6.1090   14.0881   27.5657 S   0  0  0  0  0  0  0  0  0  0  0  0
    4.9383   12.9518   26.7653 C   0  0  0  0  0  0  0  0  0  0  0  0
    5.3635   11.5045   27.0077 C   0  0  0  0  0  0  0  0  0  0  0  0
    6.6833   11.2373   26.3698 C   0  0  0  0  0  0  0  0  0  0  0  0
    7.0639    9.7034   25.7808 S   0  0  0  0  0  0  0  0  0  0  0  0
    8.4901   10.2399   25.0418 C   0  0  0  0  0  0  0  0  0  0  0  0
    8.7257   11.5598   25.3495 C   0  0  0  0  0  0  0  0  0  0  0  0
    7.6886   12.1589   26.1790 C   0  0  0  0  0  0  0  0  0  0  0  0
   11.4482   14.1240   21.9760 C   0  0  0  0  0  0  0  0  0  0  0  0
  1  2  1  0
  2  3  1  0
  3  4  2  0
  3  5  2  0
  3  6  1  0
  6  7  1  0
  7  8  1  0
  8  9  1  0
  9 10  1  0
 10 11  1  1
 11 12  2  0
 11 13  1  0
 13 14  1  0
 14 15  1  0
 15 16  2  0
 17 15  1  6
 17 18  1  0
 18 19  1  0
 19 20  1  0
 20 21  1  0
 21 22  1  0
 22 23  1  0
 23 24  2  0
 24 25  1  0
 10 26  1  0
 26  6  1  0
 25 17  1  0
 25 21  2  0
M  END
>  <alias>  (70) 
None

>  <rmsd(smina/fragmenstein)>  (70) 
2.247

>  <smiles>  (70) 
CCS(=O)(=O)N1CCC[C@@H](C(=O)NNC(=O)[C@H]2SCCc3sccc32)C1

>  <gnina_score>  (70) 
5.87

>  <inspiration_score>  (70) 
None

>  <energy_score>  (70) 
-4.305847

>  <distance_score>  (70) 
1.942947

>  <gnina_score_min>  (70) 
5.252

>  <inchikey>  (70) 
LXXVQGCVVHMUBK-RISCZKNCSA-N

>  <exports>  (70) 
['/opt/xchem-fragalysis-2/maxwin/BulkDock/OUTPUTS/openbind_a71ev2a_c2_elabs_1LOUU54.sdf', '/opt/xchem-fragalysis-2/maxwin/BulkDock/OUTPUTS/openbind_a71ev2a_c2_elabs_1LSYIDY.sdf']

>  <name>  (70) 
P556133

>  <ref_pdb>  (70) 
A4877b

>  <subsites>  (70) 
None

>  <HIPPO Pose ID>  (70) 
556133

>  <ref_mols>  (70) 
A4877b

>  <HIPPO Compound ID>  (70) 
338722

>  <tags>  (70) 
openbind_a71ev2a_c2_elabs,syndirella_product,openbind_a71ev2a_c2_elabs_scored,BulkDock Fragalysis export,openbind_a71ev2a_c2_elabs_scored_top80percent,openbind_a71ev2a_c2_elabs_scored_top80percent_despaghettified,syndirella_placed

>  <smina_score_min>  (70) 
-5.595

$$$$
P556212
     RDKit          3D

 28 29  0  0  0  0  0  0  0  0999 V2000
    6.7550   13.8109   28.2246 C   0  0  0  0  0  0  0  0  0  0  0  0
    6.7930   13.5121   26.7345 C   0  0  1  0  0  0  0  0  0  0  0  0
    7.9875   14.1964   26.1797 C   0  0  0  0  0  0  0  0  0  0  0  0
    8.8944   14.5729   26.8034 O   0  0  0  0  0  0  0  0  0  0  0  0
    7.7078   14.2895   24.6691 N   0  0  0  0  0  0  0  0  0  0  0  0
    8.4494   14.7333   23.7010 N   0  0  0  0  0  0  0  0  0  0  0  0
    9.9864   14.7398   23.5369 C   0  0  0  0  0  0  0  0  0  0  0  0
   10.8190   14.2796   24.2084 O   0  0  0  0  0  0  0  0  0  0  0  0
   10.2062   15.4892   22.2702 C   0  0  1  0  0  0  0  0  0  0  0  0
   11.6087   16.0512   22.2296 C   0  0  0  0  0  0  0  0  0  0  0  0
   12.5673   15.1382   21.5306 C   0  0  0  0  0  0  0  0  0  0  0  0
   12.0935   14.6051   20.1891 C   0  0  0  0  0  0  0  0  0  0  0  0
   10.6612   14.8250   20.0068 N   0  0  0  0  0  0  0  0  0  0  0  0
   10.1248   15.9326   18.9190 S   0  0  0  0  0  0  0  0  0  0  0  0
    9.5711   17.3527   19.8994 C   0  0  0  0  0  0  0  0  0  0  0  0
    8.9351   15.4054   18.3001 O   0  0  0  0  0  0  0  0  0  0  0  0
   11.2392   16.2856   18.0868 O   0  0  0  0  0  0  0  0  0  0  0  0
    9.8710   14.5000   21.1657 C   0  0  0  0  0  0  0  0  0  0  0  0
    6.6924   12.0488   26.4018 C   0  0  0  0  0  0  0  0  0  0  0  0
    5.5694   11.3906   26.8607 C   0  0  0  0  0  0  0  0  0  0  0  0
    5.7104   10.0939   26.5499 N   0  0  0  0  0  0  0  0  0  0  0  0
    4.8209    9.0519   26.9865 C   0  0  0  0  0  0  0  0  0  0  0  0
    6.7934    9.8397   25.8164 N   0  0  0  0  0  0  0  0  0  0  0  0
    7.4506   11.0181   25.6807 C   0  0  0  0  0  0  0  0  0  0  0  0
    8.7753   10.9836   24.8711 C   0  0  0  0  0  0  0  0  0  0  0  0
    8.7112   11.6981   23.7138 F   0  0  0  0  0  0  0  0  0  0  0  0
    9.1144    9.7110   24.4893 F   0  0  0  0  0  0  0  0  0  0  0  0
    9.8434   11.4409   25.5719 F   0  0  0  0  0  0  0  0  0  0  0  0
  2  1  1  1
  2  3  1  0
  3  4  2  0
  3  5  1  0
  5  6  1  0
  6  7  1  0
  7  8  2  0
  9  7  1  1
  9 10  1  0
 10 11  1  0
 11 12  1  0
 12 13  1  0
 13 14  1  0
 14 15  1  0
 14 16  2  0
 14 17  2  0
 13 18  1  0
  2 19  1  0
 19 20  2  0
 20 21  1  0
 21 22  1  0
 21 23  1  0
 23 24  2  0
 24 25  1  0
 25 26  1  0
 25 27  1  0
 25 28  1  0
 18  9  1  0
 24 19  1  0
M  END
>  <alias>  (71) 
None

>  <rmsd(smina/fragmenstein)>  (71) 
0.638

>  <smiles>  (71) 
C[C@@H](C(=O)NNC(=O)[C@H]1CCCN(S(C)(=O)=O)C1)c1cn(C)nc1C(F)(F)F

>  <gnina_score>  (71) 
5.826

>  <inspiration_score>  (71) 
None

>  <energy_score>  (71) 
-8.878422

>  <distance_score>  (71) 
1.922368

>  <gnina_score_min>  (71) 
5.667

>  <inchikey>  (71) 
ZTHQXRONMKFZMX-ZJUUUORDSA-N

>  <exports>  (71) 
['/opt/xchem-fragalysis-2/maxwin/BulkDock/OUTPUTS/openbind_a71ev2a_c2_elabs_1LOUU54.sdf', '/opt/xchem-fragalysis-2/maxwin/BulkDock/OUTPUTS/openbind_a71ev2a_c2_elabs_1LSYIDY.sdf']

>  <name>  (71) 
P556212

>  <ref_pdb>  (71) 
A4571a

>  <subsites>  (71) 
None

>  <HIPPO Pose ID>  (71) 
556212

>  <ref_mols>  (71) 
A4571a

>  <HIPPO Compound ID>  (71) 
315771

>  <tags>  (71) 
openbind_a71ev2a_c2_elabs,syndirella_product,openbind_a71ev2a_c2_elabs_scored,BulkDock Fragalysis export,openbind_a71ev2a_c2_elabs_scored_top80percent,openbind_a71ev2a_c2_elabs_scored_top80percent_despaghettified,syndirella_placed

>  <smina_score_min>  (71) 
-4.948

$$$$
P556214
     RDKit          3D

 28 30  0  0  0  0  0  0  0  0999 V2000
   11.7903   15.1721   18.1706 C   0  0  0  0  0  0  0  0  0  0  0  0
   10.3400   15.7616   18.9352 S   0  0  0  0  0  0  0  0  0  0  0  0
    9.1897   15.4637   18.1224 O   0  0  0  0  0  0  0  0  0  0  0  0
   10.5720   17.1326   19.3046 O   0  0  0  0  0  0  0  0  0  0  0  0
   10.1901   14.9024   20.3619 N   0  0  0  0  0  0  0  0  0  0  0  0
    9.1746   15.4974   21.2322 C   0  0  0  0  0  0  0  0  0  0  0  0
    9.7511   16.6699   22.0128 C   0  0  0  0  0  0  0  0  0  0  0  0
   11.2862   16.6707   22.1777 C   0  0  0  0  0  0  0  0  0  0  0  0
   12.0231   15.3303   22.0432 C   0  0  1  0  0  0  0  0  0  0  0  0
   12.1522   14.7481   23.4631 C   0  0  0  0  0  0  0  0  0  0  0  0
   13.1395   14.5728   24.0519 O   0  0  0  0  0  0  0  0  0  0  0  0
   10.6875   14.5741   23.8985 N   0  0  0  0  0  0  0  0  0  0  0  0
   10.1821   14.2720   25.0541 N   0  0  0  0  0  0  0  0  0  0  0  0
    9.0193   14.9182   25.8396 C   0  0  0  0  0  0  0  0  0  0  0  0
    8.3866   15.8678   25.6065 O   0  0  0  0  0  0  0  0  0  0  0  0
    8.7799   14.0118   26.9822 C   0  0  0  0  0  0  0  0  0  0  0  0
    7.6966   12.9891   26.7229 C   0  0  0  0  0  0  0  0  0  0  0  0
    6.4959   13.2468   27.3965 C   0  0  0  0  0  0  0  0  0  0  0  0
    5.5435   12.2565   27.5412 C   0  0  0  0  0  0  0  0  0  0  0  0
    5.7529   11.0002   26.9813 C   0  0  0  0  0  0  0  0  0  0  0  0
    6.8705   10.7666   26.1877 C   0  0  0  0  0  0  0  0  0  0  0  0
    7.8427   11.7601   26.0418 C   0  0  0  0  0  0  0  0  0  0  0  0
    9.2327   11.3295   25.1094 Cl  0  0  0  0  0  0  0  0  0  0  0  0
    4.9115    9.9449   27.2092 O   0  0  0  0  0  0  0  0  0  0  0  0
    4.1047   10.1778   28.3692 C   0  0  0  0  0  0  0  0  0  0  0  0
    3.4764   11.5618   28.3132 C   0  0  0  0  0  0  0  0  0  0  0  0
    4.4757   12.5785   28.3312 O   0  0  0  0  0  0  0  0  0  0  0  0
   11.3581   14.3546   21.0874 C   0  0  0  0  0  0  0  0  0  0  0  0
  1  2  1  0
  2  3  2  0
  2  4  2  0
  2  5  1  0
  5  6  1  0
  6  7  1  0
  7  8  1  0
  8  9  1  0
  9 10  1  1
 10 11  2  0
 10 12  1  0
 12 13  1  0
 13 14  1  0
 14 15  2  0
 14 16  1  0
 16 17  1  0
 17 18  2  0
 18 19  1  0
 19 20  2  0
 20 21  1  0
 21 22  2  0
 22 23  1  0
 20 24  1  0
 24 25  1  0
 25 26  1  0
 26 27  1  0
  9 28  1  0
 28  5  1  0
 22 17  1  0
 27 19  1  0
M  END
>  <alias>  (72) 
None

>  <rmsd(smina/fragmenstein)>  (72) 
1.931

>  <smiles>  (72) 
CS(=O)(=O)N1CCC[C@@H](C(=O)NNC(=O)Cc2cc3c(cc2Cl)OCCO3)C1

>  <gnina_score>  (72) 
5.802

>  <inspiration_score>  (72) 
None

>  <energy_score>  (72) 
-6.255616

>  <distance_score>  (72) 
1.656182

>  <gnina_score_min>  (72) 
5.646

>  <inchikey>  (72) 
GBSKXQCFANQHOJ-LLVKDONJSA-N

>  <exports>  (72) 
['/opt/xchem-fragalysis-2/maxwin/BulkDock/OUTPUTS/openbind_a71ev2a_c2_elabs_1LOUU54.sdf', '/opt/xchem-fragalysis-2/maxwin/BulkDock/OUTPUTS/openbind_a71ev2a_c2_elabs_1LSYIDY.sdf']

>  <name>  (72) 
P556214

>  <ref_pdb>  (72) 
A4669b

>  <subsites>  (72) 
None

>  <HIPPO Pose ID>  (72) 
556214

>  <ref_mols>  (72) 
A4669b

>  <HIPPO Compound ID>  (72) 
336276

>  <tags>  (72) 
openbind_a71ev2a_c2_elabs,syndirella_product,openbind_a71ev2a_c2_elabs_scored,BulkDock Fragalysis export,openbind_a71ev2a_c2_elabs_scored_top80percent,openbind_a71ev2a_c2_elabs_scored_top80percent_despaghettified,syndirella_placed

>  <smina_score_min>  (72) 
-5.866

$$$$
P564631
     RDKit          3D

 30 32  0  0  0  0  0  0  0  0999 V2000
    6.1793   10.6610   26.9200 C   0  0  0  0  0  0  0  0  0  0  0  0
    7.2741   10.8423   25.9355 C   0  0  0  0  0  0  0  0  0  0  0  0
    7.6069    9.8314   25.1314 N   0  0  0  0  0  0  0  0  0  0  0  0
    8.6298   10.3041   24.3935 N   0  0  0  0  0  0  0  0  0  0  0  0
    9.2719    9.4335   23.4348 C   0  0  0  0  0  0  0  0  0  0  0  0
    8.9771   11.5885   24.7232 C   0  0  0  0  0  0  0  0  0  0  0  0
   10.0952   12.3279   24.0853 C   0  0  0  0  0  0  0  0  0  0  0  0
    8.1218   11.9667   25.7448 C   0  0  0  0  0  0  0  0  0  0  0  0
    8.1961   13.1976   26.5729 C   0  0  0  0  0  0  0  0  0  0  0  0
    7.6575   14.5367   26.1088 C   0  0  0  0  0  0  0  0  0  0  0  0
    8.0228   15.4873   26.6809 O   0  0  0  0  0  0  0  0  0  0  0  0
    6.6126   14.3862   24.9885 N   0  0  0  0  0  0  0  0  0  0  0  0
    5.7214   15.3623   24.3956 C   0  0  1  0  0  0  0  0  0  0  0  0
    5.6002   15.2821   22.8633 C   0  0  0  0  0  0  0  0  0  0  0  0
    6.8682   15.4778   22.1980 N   0  0  0  0  0  0  0  0  0  0  0  0
    7.9767   14.4712   21.8427 C   0  0  0  0  0  0  0  0  0  0  0  0
    8.0783   13.3379   22.0980 O   0  0  0  0  0  0  0  0  0  0  0  0
    9.0731   15.1601   20.9796 C   0  0  2  0  0  0  0  0  0  0  0  0
   10.4679   14.7005   21.3739 C   0  0  0  0  0  0  0  0  0  0  0  0
    9.0190   16.9310   20.9893 Cl  0  0  0  0  0  0  0  0  0  0  0  0
    4.3725   15.3879   25.0970 C   0  0  0  0  0  0  0  0  0  0  0  0
    3.6508   16.5883   25.1401 C   0  0  0  0  0  0  0  0  0  0  0  0
    2.4173   16.6682   25.7872 C   0  0  0  0  0  0  0  0  0  0  0  0
    1.8944   15.5564   26.4564 C   0  0  0  0  0  0  0  0  0  0  0  0
    0.6771   15.6315   27.1486 C   0  0  0  0  0  0  0  0  0  0  0  0
    0.1967   14.5314   27.8567 C   0  0  0  0  0  0  0  0  0  0  0  0
    0.9271   13.3471   27.8850 C   0  0  0  0  0  0  0  0  0  0  0  0
    2.1293   13.2524   27.1858 C   0  0  0  0  0  0  0  0  0  0  0  0
    2.6213   14.3454   26.4557 C   0  0  0  0  0  0  0  0  0  0  0  0
    3.8314   14.2669   25.7445 C   0  0  0  0  0  0  0  0  0  0  0  0
  1  2  1  0
  2  3  2  0
  3  4  1  0
  4  5  1  0
  4  6  1  0
  6  7  1  0
  6  8  2  0
  8  9  1  0
  9 10  1  0
 10 11  2  0
 10 12  1  0
 12 13  1  0
 13 14  1  6
 14 15  1  0
 15 16  1  0
 16 17  2  0
 16 18  1  0
 18 19  1  1
 18 20  1  0
 13 21  1  0
 21 22  2  0
 22 23  1  0
 23 24  2  0
 24 25  1  0
 25 26  2  0
 26 27  1  0
 27 28  2  0
 28 29  1  0
 29 30  2  0
  8  2  1  0
 30 21  1  0
 29 24  1  0
M  END
>  <alias>  (73) 
None

>  <rmsd(smina/fragmenstein)>  (73) 
0.485

>  <smiles>  (73) 
Cc1nn(C)c(C)c1CC(=O)N[C@@H](CNC(=O)[C@H](C)Cl)c1ccc2ccccc2c1

>  <gnina_score>  (73) 
5.887

>  <inspiration_score>  (73) 
None

>  <energy_score>  (73) 
-2.048854

>  <distance_score>  (73) 
0.317037

>  <gnina_score_min>  (73) 
5.874

>  <inchikey>  (73) 
ORMFLVZAEQFKAF-QKKBWIMNSA-N

>  <exports>  (73) 
['/opt/xchem-fragalysis-2/maxwin/BulkDock/OUTPUTS/openbind_a71ev2a_c2_elabs_1LOUU54.sdf', '/opt/xchem-fragalysis-2/maxwin/BulkDock/OUTPUTS/openbind_a71ev2a_c2_elabs_1LSYIDY.sdf']

>  <name>  (73) 
P564631

>  <ref_pdb>  (73) 
A1346a

>  <subsites>  (73) 
None

>  <HIPPO Pose ID>  (73) 
564631

>  <ref_mols>  (73) 
A1346a

>  <HIPPO Compound ID>  (73) 
406306

>  <tags>  (73) 
openbind_a71ev2a_c2_elabs,syndirella_product,openbind_a71ev2a_c2_elabs_scored,BulkDock Fragalysis export,openbind_a71ev2a_c2_elabs_scored_top80percent,openbind_a71ev2a_c2_elabs_scored_top80percent_despaghettified,syndirella_placed

>  <smina_score_min>  (73) 
-7.312

$$$$
P564637
     RDKit          3D

 30 32  0  0  0  0  0  0  0  0999 V2000
    6.2031   10.6207   26.9019 C   0  0  0  0  0  0  0  0  0  0  0  0
    7.2851   10.8196   25.9061 C   0  0  0  0  0  0  0  0  0  0  0  0
    7.6307    9.8123   25.1049 N   0  0  0  0  0  0  0  0  0  0  0  0
    8.6259   10.3049   24.3434 N   0  0  0  0  0  0  0  0  0  0  0  0
    9.2772    9.4365   23.3886 C   0  0  0  0  0  0  0  0  0  0  0  0
    8.9457   11.6027   24.6542 C   0  0  0  0  0  0  0  0  0  0  0  0
   10.0306   12.3600   23.9786 C   0  0  0  0  0  0  0  0  0  0  0  0
    8.1126   11.9569   25.7039 C   0  0  0  0  0  0  0  0  0  0  0  0
    8.1874   13.1693   26.5562 C   0  0  0  0  0  0  0  0  0  0  0  0
    7.6833   14.5211   26.1009 C   0  0  0  0  0  0  0  0  0  0  0  0
    8.1461   15.4674   26.6046 O   0  0  0  0  0  0  0  0  0  0  0  0
    6.5359   14.3929   25.0841 N   0  0  0  0  0  0  0  0  0  0  0  0
    5.6453   15.3967   24.5387 C   0  0  1  0  0  0  0  0  0  0  0  0
    5.5602   15.4128   23.0046 C   0  0  0  0  0  0  0  0  0  0  0  0
    6.8603   15.5501   22.3940 N   0  0  0  0  0  0  0  0  0  0  0  0
    7.8446   14.4796   21.8830 C   0  0  0  0  0  0  0  0  0  0  0  0
    7.7941   13.3147   21.9445 O   0  0  0  0  0  0  0  0  0  0  0  0
    9.1275   15.1453   21.2935 C   0  0  1  0  0  0  0  0  0  0  0  0
    9.5363   14.4868   20.1744 F   0  0  0  0  0  0  0  0  0  0  0  0
    8.9751   16.8611   20.9155 Cl  0  0  0  0  0  0  0  0  0  0  0  0
    4.2865   15.3974   25.2119 C   0  0  0  0  0  0  0  0  0  0  0  0
    3.5471   16.5886   25.2357 C   0  0  0  0  0  0  0  0  0  0  0  0
    2.3052   16.6537   25.8657 C   0  0  0  0  0  0  0  0  0  0  0  0
    1.7921   15.5374   26.5349 C   0  0  0  0  0  0  0  0  0  0  0  0
    0.5693   15.6002   27.2168 C   0  0  0  0  0  0  0  0  0  0  0  0
    0.0981   14.4969   27.9260 C   0  0  0  0  0  0  0  0  0  0  0  0
    0.8405   13.3198   27.9613 C   0  0  0  0  0  0  0  0  0  0  0  0
    2.0476   13.2358   27.2701 C   0  0  0  0  0  0  0  0  0  0  0  0
    2.5335   14.3348   26.5457 C   0  0  0  0  0  0  0  0  0  0  0  0
    3.7533   14.2701   25.8532 C   0  0  0  0  0  0  0  0  0  0  0  0
  1  2  1  0
  2  3  2  0
  3  4  1  0
  4  5  1  0
  4  6  1  0
  6  7  1  0
  6  8  2  0
  8  9  1  0
  9 10  1  0
 10 11  2  0
 10 12  1  0
 12 13  1  0
 13 14  1  6
 14 15  1  0
 15 16  1  0
 16 17  2  0
 16 18  1  0
 18 19  1  6
 18 20  1  0
 13 21  1  0
 21 22  2  0
 22 23  1  0
 23 24  2  0
 24 25  1  0
 25 26  2  0
 26 27  1  0
 27 28  2  0
 28 29  1  0
 29 30  2  0
  8  2  1  0
 30 21  1  0
 29 24  1  0
M  END
>  <alias>  (74) 
None

>  <rmsd(smina/fragmenstein)>  (74) 
0.488

>  <smiles>  (74) 
Cc1nn(C)c(C)c1CC(=O)N[C@@H](CNC(=O)[C@@H](F)Cl)c1ccc2ccccc2c1

>  <gnina_score>  (74) 
5.864

>  <inspiration_score>  (74) 
None

>  <energy_score>  (74) 
-2.255305

>  <distance_score>  (74) 
0.303774

>  <gnina_score_min>  (74) 
5.735

>  <inchikey>  (74) 
HAHXFVYUGLCSOD-PZJWPPBQSA-N

>  <exports>  (74) 
['/opt/xchem-fragalysis-2/maxwin/BulkDock/OUTPUTS/openbind_a71ev2a_c2_elabs_1LOUU54.sdf', '/opt/xchem-fragalysis-2/maxwin/BulkDock/OUTPUTS/openbind_a71ev2a_c2_elabs_1LSYIDY.sdf']

>  <name>  (74) 
P564637

>  <ref_pdb>  (74) 
A1346a

>  <subsites>  (74) 
None

>  <HIPPO Pose ID>  (74) 
564637

>  <ref_mols>  (74) 
A1346a

>  <HIPPO Compound ID>  (74) 
406307

>  <tags>  (74) 
openbind_a71ev2a_c2_elabs,syndirella_product,openbind_a71ev2a_c2_elabs_scored,BulkDock Fragalysis export,openbind_a71ev2a_c2_elabs_scored_top80percent,openbind_a71ev2a_c2_elabs_scored_top80percent_despaghettified,syndirella_placed

>  <smina_score_min>  (74) 
-7.274

$$$$
P564638
     RDKit          3D

 30 32  0  0  0  0  0  0  0  0999 V2000
    6.2681   10.6445   26.9102 C   0  0  0  0  0  0  0  0  0  0  0  0
    7.3571   10.8171   25.9162 C   0  0  0  0  0  0  0  0  0  0  0  0
    7.7224    9.7840   25.1570 N   0  0  0  0  0  0  0  0  0  0  0  0
    8.6941   10.2690   24.3612 N   0  0  0  0  0  0  0  0  0  0  0  0
    9.3249    9.3882   23.4043 C   0  0  0  0  0  0  0  0  0  0  0  0
    8.9730   11.5910   24.6017 C   0  0  0  0  0  0  0  0  0  0  0  0
   10.0013   12.3578   23.8536 C   0  0  0  0  0  0  0  0  0  0  0  0
    8.1356   11.9740   25.6369 C   0  0  0  0  0  0  0  0  0  0  0  0
    8.0888   13.2875   26.3389 C   0  0  0  0  0  0  0  0  0  0  0  0
    7.4164   14.4778   25.6526 C   0  0  0  0  0  0  0  0  0  0  0  0
    7.7263   15.5590   25.9645 O   0  0  0  0  0  0  0  0  0  0  0  0
    6.3184   13.9930   24.6846 N   0  0  0  0  0  0  0  0  0  0  0  0
    5.3048   14.7334   23.9668 C   0  0  2  0  0  0  0  0  0  0  0  0
    5.8013   15.9085   23.1138 C   0  0  0  0  0  0  0  0  0  0  0  0
    7.1184   15.8865   22.5410 N   0  0  0  0  0  0  0  0  0  0  0  0
    7.8917   14.7392   21.8286 C   0  0  0  0  0  0  0  0  0  0  0  0
    7.6033   13.6160   21.6686 O   0  0  0  0  0  0  0  0  0  0  0  0
    9.2728   15.3572   21.4192 C   0  0  0  0  0  0  0  0  0  0  0  0
    9.1058   16.9966   20.7762 Cl  0  0  0  0  0  0  0  0  0  0  0  0
   10.1824   14.3778   20.2893 Cl  0  0  0  0  0  0  0  0  0  0  0  0
    4.1398   15.0533   24.9121 C   0  0  0  0  0  0  0  0  0  0  0  0
    3.5547   16.3192   25.0365 C   0  0  0  0  0  0  0  0  0  0  0  0
    2.4224   16.5243   25.8311 C   0  0  0  0  0  0  0  0  0  0  0  0
    1.8647   15.4738   26.5658 C   0  0  0  0  0  0  0  0  0  0  0  0
    0.7182   15.6591   27.3520 C   0  0  0  0  0  0  0  0  0  0  0  0
    0.1978   14.6066   28.1035 C   0  0  0  0  0  0  0  0  0  0  0  0
    0.8260   13.3650   28.0923 C   0  0  0  0  0  0  0  0  0  0  0  0
    1.9614   13.1658   27.3086 C   0  0  0  0  0  0  0  0  0  0  0  0
    2.4804   14.2069   26.5237 C   0  0  0  0  0  0  0  0  0  0  0  0
    3.5962   14.0158   25.6917 C   0  0  0  0  0  0  0  0  0  0  0  0
  1  2  1  0
  2  3  2  0
  3  4  1  0
  4  5  1  0
  4  6  1  0
  6  7  1  0
  6  8  2  0
  8  9  1  0
  9 10  1  0
 10 11  2  0
 10 12  1  0
 12 13  1  0
 13 14  1  1
 14 15  1  0
 15 16  1  0
 16 17  2  0
 16 18  1  0
 18 19  1  0
 18 20  1  0
 13 21  1  0
 21 22  2  0
 22 23  1  0
 23 24  2  0
 24 25  1  0
 25 26  2  0
 26 27  1  0
 27 28  2  0
 28 29  1  0
 29 30  2  0
  8  2  1  0
 30 21  1  0
 29 24  1  0
M  END
>  <alias>  (75) 
None

>  <rmsd(smina/fragmenstein)>  (75) 
0.385

>  <smiles>  (75) 
Cc1nn(C)c(C)c1CC(=O)N[C@H](CNC(=O)C(Cl)Cl)c1ccc2ccccc2c1

>  <gnina_score>  (75) 
6.084

>  <inspiration_score>  (75) 
None

>  <energy_score>  (75) 
-2.110853

>  <distance_score>  (75) 
0.364899

>  <gnina_score_min>  (75) 
6.031

>  <inchikey>  (75) 
KIACNCTWLNMWMN-LJQANCHMSA-N

>  <exports>  (75) 
['/opt/xchem-fragalysis-2/maxwin/BulkDock/OUTPUTS/openbind_a71ev2a_c2_elabs_1LOUU54.sdf', '/opt/xchem-fragalysis-2/maxwin/BulkDock/OUTPUTS/openbind_a71ev2a_c2_elabs_1LSYIDY.sdf']

>  <name>  (75) 
P564638

>  <ref_pdb>  (75) 
A1346a

>  <subsites>  (75) 
None

>  <HIPPO Pose ID>  (75) 
564638

>  <ref_mols>  (75) 
A1346a

>  <HIPPO Compound ID>  (75) 
406308

>  <tags>  (75) 
openbind_a71ev2a_c2_elabs,syndirella_product,openbind_a71ev2a_c2_elabs_scored,BulkDock Fragalysis export,openbind_a71ev2a_c2_elabs_scored_top80percent,openbind_a71ev2a_c2_elabs_scored_6plus,openbind_a71ev2a_c2_elabs_scored_top80percent_despaghettified,syndirella_placed

>  <smina_score_min>  (75) 
-7.084

$$$$
P564639
     RDKit          3D

 30 32  0  0  0  0  0  0  0  0999 V2000
   10.1582   14.6425   20.8802 C   0  0  0  0  0  0  0  0  0  0  0  0
    9.0361   15.2971   21.2039 C   0  0  0  0  0  0  0  0  0  0  0  0
    8.9504   16.9876   20.9024 Cl  0  0  0  0  0  0  0  0  0  0  0  0
    7.8763   14.5452   21.8399 C   0  0  0  0  0  0  0  0  0  0  0  0
    7.9375   13.3913   21.9710 O   0  0  0  0  0  0  0  0  0  0  0  0
    6.8085   15.5406   22.2994 N   0  0  0  0  0  0  0  0  0  0  0  0
    5.5346   15.3199   22.9392 C   0  0  0  0  0  0  0  0  0  0  0  0
    5.6516   15.3603   24.4719 C   0  0  2  0  0  0  0  0  0  0  0  0
    6.5536   14.3771   25.0346 N   0  0  0  0  0  0  0  0  0  0  0  0
    7.6639   14.5270   26.0903 C   0  0  0  0  0  0  0  0  0  0  0  0
    8.0818   15.4808   26.6195 O   0  0  0  0  0  0  0  0  0  0  0  0
    8.1959   13.1844   26.5490 C   0  0  0  0  0  0  0  0  0  0  0  0
    8.1177   11.9616   25.7106 C   0  0  0  0  0  0  0  0  0  0  0  0
    7.2835   10.8297   25.9148 C   0  0  0  0  0  0  0  0  0  0  0  0
    6.2024   10.6368   26.9125 C   0  0  0  0  0  0  0  0  0  0  0  0
    7.6175    9.8215   25.1097 N   0  0  0  0  0  0  0  0  0  0  0  0
    8.6210   10.3032   24.3517 N   0  0  0  0  0  0  0  0  0  0  0  0
    9.2630    9.4299   23.3942 C   0  0  0  0  0  0  0  0  0  0  0  0
    8.9534   11.5966   24.6671 C   0  0  0  0  0  0  0  0  0  0  0  0
   10.0475   12.3475   24.0002 C   0  0  0  0  0  0  0  0  0  0  0  0
    4.3040   15.3732   25.1695 C   0  0  0  0  0  0  0  0  0  0  0  0
    3.5733   16.5693   25.2050 C   0  0  0  0  0  0  0  0  0  0  0  0
    2.3385   16.6415   25.8486 C   0  0  0  0  0  0  0  0  0  0  0  0
    1.8244   15.5270   26.5200 C   0  0  0  0  0  0  0  0  0  0  0  0
    0.6068   15.5953   27.2112 C   0  0  0  0  0  0  0  0  0  0  0  0
    0.1345   14.4934   27.9220 C   0  0  0  0  0  0  0  0  0  0  0  0
    0.8718   13.3131   27.9516 C   0  0  0  0  0  0  0  0  0  0  0  0
    2.0742   13.2243   27.2524 C   0  0  0  0  0  0  0  0  0  0  0  0
    2.5596   14.3205   26.5233 C   0  0  0  0  0  0  0  0  0  0  0  0
    3.7720   14.2493   25.8174 C   0  0  0  0  0  0  0  0  0  0  0  0
  1  2  2  0
  2  3  1  0
  2  4  1  0
  4  5  2  0
  4  6  1  0
  6  7  1  0
  8  7  1  6
  8  9  1  0
  9 10  1  0
 10 11  2  0
 10 12  1  0
 12 13  1  0
 13 14  1  0
 14 15  1  0
 14 16  2  0
 16 17  1  0
 17 18  1  0
 17 19  1  0
 19 20  1  0
  8 21  1  0
 21 22  2  0
 22 23  1  0
 23 24  2  0
 24 25  1  0
 25 26  2  0
 26 27  1  0
 27 28  2  0
 28 29  1  0
 29 30  2  0
 19 13  2  0
 30 21  1  0
 29 24  1  0
M  END
>  <alias>  (76) 
None

>  <rmsd(smina/fragmenstein)>  (76) 
0.49

>  <smiles>  (76) 
C=C(Cl)C(=O)NC[C@H](NC(=O)Cc1c(C)nn(C)c1C)c1ccc2ccccc2c1

>  <gnina_score>  (76) 
5.947

>  <inspiration_score>  (76) 
None

>  <energy_score>  (76) 
-15.243158

>  <distance_score>  (76) 
0.300066

>  <gnina_score_min>  (76) 
5.901

>  <inchikey>  (76) 
ZRQLWTLHYWCXLC-NRFANRHFSA-N

>  <exports>  (76) 
['/opt/xchem-fragalysis-2/maxwin/BulkDock/OUTPUTS/openbind_a71ev2a_c2_elabs_1LOUU54.sdf', '/opt/xchem-fragalysis-2/maxwin/BulkDock/OUTPUTS/openbind_a71ev2a_c2_elabs_1LSYIDY.sdf']

>  <name>  (76) 
P564639

>  <ref_pdb>  (76) 
A1346a

>  <subsites>  (76) 
None

>  <HIPPO Pose ID>  (76) 
564639

>  <ref_mols>  (76) 
A1346a

>  <HIPPO Compound ID>  (76) 
406309

>  <tags>  (76) 
openbind_a71ev2a_c2_elabs,syndirella_product,openbind_a71ev2a_c2_elabs_scored,BulkDock Fragalysis export,openbind_a71ev2a_c2_elabs_scored_top80percent,openbind_a71ev2a_c2_elabs_scored_top80percent_despaghettified,syndirella_placed

>  <smina_score_min>  (76) 
-7.316

$$$$
P564642
     RDKit          3D

 31 33  0  0  0  0  0  0  0  0999 V2000
    6.2030   10.6390   26.8925 C   0  0  0  0  0  0  0  0  0  0  0  0
    7.2864   10.8360   25.8978 C   0  0  0  0  0  0  0  0  0  0  0  0
    7.6298    9.8282   25.0955 N   0  0  0  0  0  0  0  0  0  0  0  0
    8.6327   10.3164   24.3416 N   0  0  0  0  0  0  0  0  0  0  0  0
    9.2849    9.4475   23.3884 C   0  0  0  0  0  0  0  0  0  0  0  0
    8.9577   11.6110   24.6563 C   0  0  0  0  0  0  0  0  0  0  0  0
   10.0551   12.3615   23.9930 C   0  0  0  0  0  0  0  0  0  0  0  0
    8.1168   11.9720   25.6969 C   0  0  0  0  0  0  0  0  0  0  0  0
    8.1919   13.1899   26.5420 C   0  0  0  0  0  0  0  0  0  0  0  0
    7.6604   14.5363   26.0944 C   0  0  0  0  0  0  0  0  0  0  0  0
    8.0798   15.4835   26.6340 O   0  0  0  0  0  0  0  0  0  0  0  0
    6.5500   14.4000   25.0364 N   0  0  0  0  0  0  0  0  0  0  0  0
    5.6500   15.3913   24.4838 C   0  0  1  0  0  0  0  0  0  0  0  0
    5.5125   15.3704   22.9531 C   0  0  0  0  0  0  0  0  0  0  0  0
    6.7797   15.5059   22.2776 N   0  0  0  0  0  0  0  0  0  0  0  0
    7.8264   14.4378   21.8815 C   0  0  0  0  0  0  0  0  0  0  0  0
    7.7905   13.2721   21.9715 O   0  0  0  0  0  0  0  0  0  0  0  0
    9.1530   15.1121   21.3239 C   0  0  0  0  0  0  0  0  0  0  0  0
   10.1626   14.9549   22.2307 F   0  0  0  0  0  0  0  0  0  0  0  0
    9.5672   14.4602   20.2016 F   0  0  0  0  0  0  0  0  0  0  0  0
    8.9922   16.8291   20.9469 Cl  0  0  0  0  0  0  0  0  0  0  0  0
    4.3054   15.4024   25.1878 C   0  0  0  0  0  0  0  0  0  0  0  0
    3.5729   16.5971   25.2291 C   0  0  0  0  0  0  0  0  0  0  0  0
    2.3371   16.6631   25.8714 C   0  0  0  0  0  0  0  0  0  0  0  0
    1.8233   15.5437   26.5349 C   0  0  0  0  0  0  0  0  0  0  0  0
    0.6038   15.6055   27.2234 C   0  0  0  0  0  0  0  0  0  0  0  0
    0.1311   14.4979   27.9250 C   0  0  0  0  0  0  0  0  0  0  0  0
    0.8699   13.3184   27.9483 C   0  0  0  0  0  0  0  0  0  0  0  0
    2.0741   13.2361   27.2516 C   0  0  0  0  0  0  0  0  0  0  0  0
    2.5600   14.3382   26.5319 C   0  0  0  0  0  0  0  0  0  0  0  0
    3.7737   14.2735   25.8278 C   0  0  0  0  0  0  0  0  0  0  0  0
  1  2  1  0
  2  3  2  0
  3  4  1  0
  4  5  1  0
  4  6  1  0
  6  7  1  0
  6  8  2  0
  8  9  1  0
  9 10  1  0
 10 11  2  0
 10 12  1  0
 12 13  1  0
 13 14  1  6
 14 15  1  0
 15 16  1  0
 16 17  2  0
 16 18  1  0
 18 19  1  0
 18 20  1  0
 18 21  1  0
 13 22  1  0
 22 23  2  0
 23 24  1  0
 24 25  2  0
 25 26  1  0
 26 27  2  0
 27 28  1  0
 28 29  2  0
 29 30  1  0
 30 31  2  0
  8  2  1  0
 31 22  1  0
 30 25  1  0
M  END
>  <alias>  (77) 
None

>  <rmsd(smina/fragmenstein)>  (77) 
0.436

>  <smiles>  (77) 
Cc1nn(C)c(C)c1CC(=O)N[C@@H](CNC(=O)C(F)(F)Cl)c1ccc2ccccc2c1

>  <gnina_score>  (77) 
5.983

>  <inspiration_score>  (77) 
None

>  <energy_score>  (77) 
-1.152815

>  <distance_score>  (77) 
0.299016

>  <gnina_score_min>  (77) 
5.875

>  <inchikey>  (77) 
BODHLWGOUZQKMB-IBGZPJMESA-N

>  <exports>  (77) 
['/opt/xchem-fragalysis-2/maxwin/BulkDock/OUTPUTS/openbind_a71ev2a_c2_elabs_1LOUU54.sdf', '/opt/xchem-fragalysis-2/maxwin/BulkDock/OUTPUTS/openbind_a71ev2a_c2_elabs_1LSYIDY.sdf']

>  <name>  (77) 
P564642

>  <ref_pdb>  (77) 
A1346a

>  <subsites>  (77) 
None

>  <HIPPO Pose ID>  (77) 
564642

>  <ref_mols>  (77) 
A1346a

>  <HIPPO Compound ID>  (77) 
406310

>  <tags>  (77) 
openbind_a71ev2a_c2_elabs,syndirella_product,openbind_a71ev2a_c2_elabs_scored,BulkDock Fragalysis export,openbind_a71ev2a_c2_elabs_scored_top80percent,openbind_a71ev2a_c2_elabs_scored_top80percent_despaghettified,syndirella_placed

>  <smina_score_min>  (77) 
-7.536

$$$$
P564643
     RDKit          3D

 31 33  0  0  0  0  0  0  0  0999 V2000
    6.2150   10.5831   26.9536 C   0  0  0  0  0  0  0  0  0  0  0  0
    7.3185   10.7421   25.9741 C   0  0  0  0  0  0  0  0  0  0  0  0
    7.6642    9.7118   25.1989 N   0  0  0  0  0  0  0  0  0  0  0  0
    8.6619   10.1815   24.4280 N   0  0  0  0  0  0  0  0  0  0  0  0
    9.2769    9.3182   23.4455 C   0  0  0  0  0  0  0  0  0  0  0  0
    8.9753   11.4844   24.7049 C   0  0  0  0  0  0  0  0  0  0  0  0
   10.0366   12.2306   23.9977 C   0  0  0  0  0  0  0  0  0  0  0  0
    8.1272   11.8832   25.7214 C   0  0  0  0  0  0  0  0  0  0  0  0
    8.1052   13.2032   26.4143 C   0  0  0  0  0  0  0  0  0  0  0  0
    7.4551   14.4033   25.7213 C   0  0  0  0  0  0  0  0  0  0  0  0
    7.7177   15.4798   26.0893 O   0  0  0  0  0  0  0  0  0  0  0  0
    6.4383   13.9287   24.6625 N   0  0  0  0  0  0  0  0  0  0  0  0
    5.4625   14.6704   23.9012 C   0  0  2  0  0  0  0  0  0  0  0  0
    5.9936   15.8857   23.1373 C   0  0  0  0  0  0  0  0  0  0  0  0
    7.2706   15.9168   22.4771 N   0  0  0  0  0  0  0  0  0  0  0  0
    8.0291   14.8058   21.6809 C   0  0  0  0  0  0  0  0  0  0  0  0
    7.7609   13.6768   21.5105 O   0  0  0  0  0  0  0  0  0  0  0  0
    9.4087   15.4663   21.1715 C   0  0  0  0  0  0  0  0  0  0  0  0
   10.7188   14.9377   22.2515 Cl  0  0  0  0  0  0  0  0  0  0  0  0
    9.9143   14.9420   19.5783 Cl  0  0  0  0  0  0  0  0  0  0  0  0
    9.2498   17.2278   21.0583 Cl  0  0  0  0  0  0  0  0  0  0  0  0
    4.2614   14.9877   24.8173 C   0  0  0  0  0  0  0  0  0  0  0  0
    3.6736   16.2557   24.9203 C   0  0  0  0  0  0  0  0  0  0  0  0
    2.5340   16.4773   25.7018 C   0  0  0  0  0  0  0  0  0  0  0  0
    1.9684   15.4418   26.4508 C   0  0  0  0  0  0  0  0  0  0  0  0
    0.8177   15.6449   27.2279 C   0  0  0  0  0  0  0  0  0  0  0  0
    0.2904   14.6087   27.9969 C   0  0  0  0  0  0  0  0  0  0  0  0
    0.9172   13.3668   28.0135 C   0  0  0  0  0  0  0  0  0  0  0  0
    2.0572   13.1511   27.2400 C   0  0  0  0  0  0  0  0  0  0  0  0
    2.5828   14.1739   26.4339 C   0  0  0  0  0  0  0  0  0  0  0  0
    3.7049   13.9658   25.6092 C   0  0  0  0  0  0  0  0  0  0  0  0
  1  2  1  0
  2  3  2  0
  3  4  1  0
  4  5  1  0
  4  6  1  0
  6  7  1  0
  6  8  2  0
  8  9  1  0
  9 10  1  0
 10 11  2  0
 10 12  1  0
 12 13  1  0
 13 14  1  1
 14 15  1  0
 15 16  1  0
 16 17  2  0
 16 18  1  0
 18 19  1  0
 18 20  1  0
 18 21  1  0
 13 22  1  0
 22 23  2  0
 23 24  1  0
 24 25  2  0
 25 26  1  0
 26 27  2  0
 27 28  1  0
 28 29  2  0
 29 30  1  0
 30 31  2  0
  8  2  1  0
 31 22  1  0
 30 25  1  0
M  END
>  <alias>  (78) 
None

>  <rmsd(smina/fragmenstein)>  (78) 
0.329

>  <smiles>  (78) 
Cc1nn(C)c(C)c1CC(=O)N[C@H](CNC(=O)C(Cl)(Cl)Cl)c1ccc2ccccc2c1

>  <gnina_score>  (78) 
6.28

>  <inspiration_score>  (78) 
None

>  <energy_score>  (78) 
-6.404853

>  <distance_score>  (78) 
0.374086

>  <gnina_score_min>  (78) 
6.257

>  <inchikey>  (78) 
WGTQMVOKFAZYFZ-LJQANCHMSA-N

>  <exports>  (78) 
['/opt/xchem-fragalysis-2/maxwin/BulkDock/OUTPUTS/openbind_a71ev2a_c2_elabs_1LOUU54.sdf', '/opt/xchem-fragalysis-2/maxwin/BulkDock/OUTPUTS/openbind_a71ev2a_c2_elabs_1LSYIDY.sdf']

>  <name>  (78) 
P564643

>  <ref_pdb>  (78) 
A1346a

>  <subsites>  (78) 
None

>  <HIPPO Pose ID>  (78) 
564643

>  <ref_mols>  (78) 
A1346a

>  <HIPPO Compound ID>  (78) 
406312

>  <tags>  (78) 
openbind_a71ev2a_c2_elabs,syndirella_product,openbind_a71ev2a_c2_elabs_scored,BulkDock Fragalysis export,openbind_a71ev2a_c2_elabs_scored_top80percent,openbind_a71ev2a_c2_elabs_scored_6plus,openbind_a71ev2a_c2_elabs_scored_top80percent_despaghettified,syndirella_placed

>  <smina_score_min>  (78) 
-7.381

$$$$
P564645
     RDKit          3D

 31 34  0  0  0  0  0  0  0  0999 V2000
    6.1523   10.6004   26.9405 C   0  0  0  0  0  0  0  0  0  0  0  0
    7.2419   10.7908   25.9521 C   0  0  0  0  0  0  0  0  0  0  0  0
    7.5835    9.7827   25.1478 N   0  0  0  0  0  0  0  0  0  0  0  0
    8.5915   10.2689   24.3990 N   0  0  0  0  0  0  0  0  0  0  0  0
    9.2425    9.4088   23.4366 C   0  0  0  0  0  0  0  0  0  0  0  0
    8.9188   11.5595   24.7215 C   0  0  0  0  0  0  0  0  0  0  0  0
   10.0141   12.3096   24.0640 C   0  0  0  0  0  0  0  0  0  0  0  0
    8.0768   11.9238   25.7583 C   0  0  0  0  0  0  0  0  0  0  0  0
    8.1495   13.1485   26.5965 C   0  0  0  0  0  0  0  0  0  0  0  0
    7.6476   14.4970   26.1239 C   0  0  0  0  0  0  0  0  0  0  0  0
    8.0587   15.4472   26.6636 O   0  0  0  0  0  0  0  0  0  0  0  0
    6.5682   14.3559   25.0370 N   0  0  0  0  0  0  0  0  0  0  0  0
    5.6931   15.3462   24.4468 C   0  0  1  0  0  0  0  0  0  0  0  0
    5.6251   15.2961   22.9114 C   0  0  0  0  0  0  0  0  0  0  0  0
    6.9058   15.5947   22.3109 N   0  0  0  0  0  0  0  0  0  0  0  0
    8.0101   14.6634   21.8111 C   0  0  0  0  0  0  0  0  0  0  0  0
    8.1039   13.5066   21.8701 O   0  0  0  0  0  0  0  0  0  0  0  0
    9.1856   15.4531   21.2179 C   0  0  0  0  0  0  0  0  0  0  0  0
    8.9412   17.1844   20.8563 Cl  0  0  0  0  0  0  0  0  0  0  0  0
   10.1771   14.7771   20.2896 C   0  0  0  0  0  0  0  0  0  0  0  0
   10.5884   15.1020   21.6875 C   0  0  0  0  0  0  0  0  0  0  0  0
    4.3316   15.3690   25.1204 C   0  0  0  0  0  0  0  0  0  0  0  0
    3.6120   16.5714   25.1507 C   0  0  0  0  0  0  0  0  0  0  0  0
    2.3756   16.6583   25.7907 C   0  0  0  0  0  0  0  0  0  0  0  0
    1.8484   15.5524   26.4662 C   0  0  0  0  0  0  0  0  0  0  0  0
    0.6313   15.6362   27.1572 C   0  0  0  0  0  0  0  0  0  0  0  0
    0.1476   14.5427   27.8733 C   0  0  0  0  0  0  0  0  0  0  0  0
    0.8734   13.3557   27.9090 C   0  0  0  0  0  0  0  0  0  0  0  0
    2.0745   13.2514   27.2096 C   0  0  0  0  0  0  0  0  0  0  0  0
    2.5712   14.3388   26.4746 C   0  0  0  0  0  0  0  0  0  0  0  0
    3.7838   14.2527   25.7697 C   0  0  0  0  0  0  0  0  0  0  0  0
  1  2  1  0
  2  3  2  0
  3  4  1  0
  4  5  1  0
  4  6  1  0
  6  7  1  0
  6  8  2  0
  8  9  1  0
  9 10  1  0
 10 11  2  0
 10 12  1  0
 12 13  1  0
 13 14  1  6
 14 15  1  0
 15 16  1  0
 16 17  2  0
 16 18  1  0
 18 19  1  0
 18 20  1  0
 20 21  1  0
 13 22  1  0
 22 23  2  0
 23 24  1  0
 24 25  2  0
 25 26  1  0
 26 27  2  0
 27 28  1  0
 28 29  2  0
 29 30  1  0
 30 31  2  0
  8  2  1  0
 21 18  1  0
 31 22  1  0
 30 25  1  0
M  END
>  <alias>  (79) 
None

>  <rmsd(smina/fragmenstein)>  (79) 
0.441

>  <smiles>  (79) 
Cc1nn(C)c(C)c1CC(=O)N[C@@H](CNC(=O)C1(Cl)CC1)c1ccc2ccccc2c1

>  <gnina_score>  (79) 
6.094

>  <inspiration_score>  (79) 
None

>  <energy_score>  (79) 
-8.041733

>  <distance_score>  (79) 
0.305117

>  <gnina_score_min>  (79) 
6.042

>  <inchikey>  (79) 
KZSGILOZTZKGDU-NRFANRHFSA-N

>  <exports>  (79) 
['/opt/xchem-fragalysis-2/maxwin/BulkDock/OUTPUTS/openbind_a71ev2a_c2_elabs_1LOUU54.sdf', '/opt/xchem-fragalysis-2/maxwin/BulkDock/OUTPUTS/openbind_a71ev2a_c2_elabs_1LSYIDY.sdf']

>  <name>  (79) 
P564645

>  <ref_pdb>  (79) 
A1346a

>  <subsites>  (79) 
None

>  <HIPPO Pose ID>  (79) 
564645

>  <ref_mols>  (79) 
A1346a

>  <HIPPO Compound ID>  (79) 
406313

>  <tags>  (79) 
openbind_a71ev2a_c2_elabs,syndirella_product,openbind_a71ev2a_c2_elabs_scored,BulkDock Fragalysis export,openbind_a71ev2a_c2_elabs_scored_top80percent,openbind_a71ev2a_c2_elabs_scored_6plus,openbind_a71ev2a_c2_elabs_scored_top80percent_despaghettified,syndirella_placed

>  <smina_score_min>  (79) 
-7.78

$$$$
P564646
     RDKit          3D

 31 33  0  0  0  0  0  0  0  0999 V2000
   11.3918   14.6874   21.9325 C   0  0  0  0  0  0  0  0  0  0  0  0
   10.4619   14.5346   20.9819 C   0  0  0  0  0  0  0  0  0  0  0  0
    9.0781   15.1175   20.9125 C   0  0  2  0  0  0  0  0  0  0  0  0
    9.1133   16.8800   21.0529 Cl  0  0  0  0  0  0  0  0  0  0  0  0
    7.9844   14.4219   21.8088 C   0  0  0  0  0  0  0  0  0  0  0  0
    8.0976   13.2986   22.1033 O   0  0  0  0  0  0  0  0  0  0  0  0
    6.8294   15.4132   22.0709 N   0  0  0  0  0  0  0  0  0  0  0  0
    5.6111   15.2553   22.8341 C   0  0  0  0  0  0  0  0  0  0  0  0
    5.7889   15.3628   24.3574 C   0  0  2  0  0  0  0  0  0  0  0  0
    6.6737   14.3805   24.9462 N   0  0  0  0  0  0  0  0  0  0  0  0
    7.7244   14.5225   26.0615 C   0  0  0  0  0  0  0  0  0  0  0  0
    8.1000   15.4701   26.6318 O   0  0  0  0  0  0  0  0  0  0  0  0
    8.2547   13.1806   26.5250 C   0  0  0  0  0  0  0  0  0  0  0  0
    8.1561   11.9441   25.7103 C   0  0  0  0  0  0  0  0  0  0  0  0
    7.2989   10.8308   25.9175 C   0  0  0  0  0  0  0  0  0  0  0  0
    6.2075   10.6689   26.9090 C   0  0  0  0  0  0  0  0  0  0  0  0
    7.6191    9.8080   25.1236 N   0  0  0  0  0  0  0  0  0  0  0  0
    8.6346   10.2668   24.3650 N   0  0  0  0  0  0  0  0  0  0  0  0
    9.2549    9.3875   23.3990 C   0  0  0  0  0  0  0  0  0  0  0  0
    8.9963   11.5502   24.6826 C   0  0  0  0  0  0  0  0  0  0  0  0
   10.1105   12.2763   24.0243 C   0  0  0  0  0  0  0  0  0  0  0  0
    4.4485   15.3971   25.0814 C   0  0  0  0  0  0  0  0  0  0  0  0
    3.7232   16.5949   25.1256 C   0  0  0  0  0  0  0  0  0  0  0  0
    2.4884   16.6709   25.7718 C   0  0  0  0  0  0  0  0  0  0  0  0
    1.9647   15.5564   26.4360 C   0  0  0  0  0  0  0  0  0  0  0  0
    0.7415   15.6252   27.1190 C   0  0  0  0  0  0  0  0  0  0  0  0
    0.2575   14.5202   27.8172 C   0  0  0  0  0  0  0  0  0  0  0  0
    0.9914   13.3381   27.8466 C   0  0  0  0  0  0  0  0  0  0  0  0
    2.2010   13.2510   27.1589 C   0  0  0  0  0  0  0  0  0  0  0  0
    2.6955   14.3478   26.4360 C   0  0  0  0  0  0  0  0  0  0  0  0
    3.9092   14.2746   25.7291 C   0  0  0  0  0  0  0  0  0  0  0  0
  1  2  2  0
  2  3  1  0
  3  4  1  1
  3  5  1  0
  5  6  2  0
  5  7  1  0
  7  8  1  0
  9  8  1  6
  9 10  1  0
 10 11  1  0
 11 12  2  0
 11 13  1  0
 13 14  1  0
 14 15  1  0
 15 16  1  0
 15 17  2  0
 17 18  1  0
 18 19  1  0
 18 20  1  0
 20 21  1  0
  9 22  1  0
 22 23  2  0
 23 24  1  0
 24 25  2  0
 25 26  1  0
 26 27  2  0
 27 28  1  0
 28 29  2  0
 29 30  1  0
 30 31  2  0
 20 14  2  0
 31 22  1  0
 30 25  1  0
M  END
>  <alias>  (80) 
None

>  <rmsd(smina/fragmenstein)>  (80) 
0.472

>  <smiles>  (80) 
C=C[C@H](Cl)C(=O)NC[C@H](NC(=O)Cc1c(C)nn(C)c1C)c1ccc2ccccc2c1

>  <gnina_score>  (80) 
6.109

>  <inspiration_score>  (80) 
None

>  <energy_score>  (80) 
-24.556322

>  <distance_score>  (80) 
0.326899

>  <gnina_score_min>  (80) 
6.05

>  <inchikey>  (80) 
SYJAIDJNRXFMFJ-VXKWHMMOSA-N

>  <exports>  (80) 
['/opt/xchem-fragalysis-2/maxwin/BulkDock/OUTPUTS/openbind_a71ev2a_c2_elabs_1LOUU54.sdf', '/opt/xchem-fragalysis-2/maxwin/BulkDock/OUTPUTS/openbind_a71ev2a_c2_elabs_1LSYIDY.sdf']

>  <name>  (80) 
P564646

>  <ref_pdb>  (80) 
A1346a

>  <subsites>  (80) 
None

>  <HIPPO Pose ID>  (80) 
564646

>  <ref_mols>  (80) 
A1346a

>  <HIPPO Compound ID>  (80) 
406315

>  <tags>  (80) 
openbind_a71ev2a_c2_elabs,syndirella_product,openbind_a71ev2a_c2_elabs_scored,BulkDock Fragalysis export,openbind_a71ev2a_c2_elabs_scored_top80percent,openbind_a71ev2a_c2_elabs_scored_6plus,openbind_a71ev2a_c2_elabs_scored_top80percent_despaghettified,syndirella_placed

>  <smina_score_min>  (80) 
-7.338

$$$$
P564652
     RDKit          3D

 31 33  0  0  0  0  0  0  0  0999 V2000
   11.5975   14.3049   21.0190 C   0  0  0  0  0  0  0  0  0  0  0  0
   10.1881   14.5035   20.4665 C   0  0  0  0  0  0  0  0  0  0  0  0
    9.3074   15.2966   21.4201 C   0  0  1  0  0  0  0  0  0  0  0  0
    9.1515   16.9695   20.8159 Cl  0  0  0  0  0  0  0  0  0  0  0  0
    7.9043   14.7047   21.7976 C   0  0  0  0  0  0  0  0  0  0  0  0
    7.5875   13.5970   21.6034 O   0  0  0  0  0  0  0  0  0  0  0  0
    7.1582   15.8487   22.5312 N   0  0  0  0  0  0  0  0  0  0  0  0
    5.8358   15.8920   23.0909 C   0  0  0  0  0  0  0  0  0  0  0  0
    5.3252   14.7294   23.9528 C   0  0  1  0  0  0  0  0  0  0  0  0
    6.3295   13.9876   24.6822 N   0  0  0  0  0  0  0  0  0  0  0  0
    7.4065   14.4691   25.6755 C   0  0  0  0  0  0  0  0  0  0  0  0
    7.7044   15.5489   26.0038 O   0  0  0  0  0  0  0  0  0  0  0  0
    8.0730   13.2762   26.3627 C   0  0  0  0  0  0  0  0  0  0  0  0
    8.1187   11.9606   25.6637 C   0  0  0  0  0  0  0  0  0  0  0  0
    7.3407   10.8033   25.9412 C   0  0  0  0  0  0  0  0  0  0  0  0
    6.2475   10.6323   26.9306 C   0  0  0  0  0  0  0  0  0  0  0  0
    7.7111    9.7686   25.1855 N   0  0  0  0  0  0  0  0  0  0  0  0
    8.6772   10.2569   24.3855 N   0  0  0  0  0  0  0  0  0  0  0  0
    9.3050    9.3813   23.4220 C   0  0  0  0  0  0  0  0  0  0  0  0
    8.9537   11.5784   24.6273 C   0  0  0  0  0  0  0  0  0  0  0  0
    9.9713   12.3492   23.8732 C   0  0  0  0  0  0  0  0  0  0  0  0
    4.1584   15.0601   24.8924 C   0  0  0  0  0  0  0  0  0  0  0  0
    3.5881   16.3318   25.0197 C   0  0  0  0  0  0  0  0  0  0  0  0
    2.4564   16.5469   25.8132 C   0  0  0  0  0  0  0  0  0  0  0  0
    1.8852   15.5006   26.5444 C   0  0  0  0  0  0  0  0  0  0  0  0
    0.7396   15.6959   27.3299 C   0  0  0  0  0  0  0  0  0  0  0  0
    0.2064   14.6470   28.0779 C   0  0  0  0  0  0  0  0  0  0  0  0
    0.8210   13.3988   28.0640 C   0  0  0  0  0  0  0  0  0  0  0  0
    1.9551   13.1896   27.2811 C   0  0  0  0  0  0  0  0  0  0  0  0
    2.4866   14.2272   26.4996 C   0  0  0  0  0  0  0  0  0  0  0  0
    3.6013   14.0265   25.6684 C   0  0  0  0  0  0  0  0  0  0  0  0
  1  2  1  0
  2  3  1  0
  3  4  1  6
  3  5  1  0
  5  6  2  0
  5  7  1  0
  7  8  1  0
  9  8  1  1
  9 10  1  0
 10 11  1  0
 11 12  2  0
 11 13  1  0
 13 14  1  0
 14 15  1  0
 15 16  1  0
 15 17  2  0
 17 18  1  0
 18 19  1  0
 18 20  1  0
 20 21  1  0
  9 22  1  0
 22 23  2  0
 23 24  1  0
 24 25  2  0
 25 26  1  0
 26 27  2  0
 27 28  1  0
 28 29  2  0
 29 30  1  0
 30 31  2  0
 20 14  2  0
 31 22  1  0
 30 25  1  0
M  END
>  <alias>  (81) 
None

>  <rmsd(smina/fragmenstein)>  (81) 
0.343

>  <smiles>  (81) 
CC[C@@H](Cl)C(=O)NC[C@@H](NC(=O)Cc1c(C)nn(C)c1C)c1ccc2ccccc2c1

>  <gnina_score>  (81) 
6.255

>  <inspiration_score>  (81) 
None

>  <energy_score>  (81) 
-16.907153

>  <distance_score>  (81) 
0.35299

>  <gnina_score_min>  (81) 
6.249

>  <inchikey>  (81) 
SCUKAFUHFSPFJE-FGZHOGPDSA-N

>  <exports>  (81) 
['/opt/xchem-fragalysis-2/maxwin/BulkDock/OUTPUTS/openbind_a71ev2a_c2_elabs_1LOUU54.sdf', '/opt/xchem-fragalysis-2/maxwin/BulkDock/OUTPUTS/openbind_a71ev2a_c2_elabs_1LSYIDY.sdf']

>  <name>  (81) 
P564652

>  <ref_pdb>  (81) 
A1346a

>  <subsites>  (81) 
None

>  <HIPPO Pose ID>  (81) 
564652

>  <ref_mols>  (81) 
A1346a

>  <HIPPO Compound ID>  (81) 
406316

>  <tags>  (81) 
openbind_a71ev2a_c2_elabs,syndirella_product,openbind_a71ev2a_c2_elabs_scored,BulkDock Fragalysis export,openbind_a71ev2a_c2_elabs_scored_top80percent,openbind_a71ev2a_c2_elabs_scored_6plus,openbind_a71ev2a_c2_elabs_scored_top80percent_despaghettified,syndirella_placed

>  <smina_score_min>  (81) 
-7.134

$$$$
P564654
     RDKit          3D

 31 33  0  0  0  0  0  0  0  0999 V2000
    6.1640   10.6080   26.9116 C   0  0  0  0  0  0  0  0  0  0  0  0
    7.2630   10.7760   25.9296 C   0  0  0  0  0  0  0  0  0  0  0  0
    7.5923    9.7599   25.1299 N   0  0  0  0  0  0  0  0  0  0  0  0
    8.6137   10.2258   24.3868 N   0  0  0  0  0  0  0  0  0  0  0  0
    9.2472    9.3592   23.4191 C   0  0  0  0  0  0  0  0  0  0  0  0
    8.9666   11.5074   24.7136 C   0  0  0  0  0  0  0  0  0  0  0  0
   10.0883   12.2296   24.0721 C   0  0  0  0  0  0  0  0  0  0  0  0
    8.1188   11.8929   25.7377 C   0  0  0  0  0  0  0  0  0  0  0  0
    8.2035   13.1236   26.5650 C   0  0  0  0  0  0  0  0  0  0  0  0
    7.7390   14.4768   26.0722 C   0  0  0  0  0  0  0  0  0  0  0  0
    8.1561   15.4234   26.6129 O   0  0  0  0  0  0  0  0  0  0  0  0
    6.6820   14.3468   24.9639 N   0  0  0  0  0  0  0  0  0  0  0  0
    5.8396   15.3473   24.3469 C   0  0  1  0  0  0  0  0  0  0  0  0
    5.8302   15.3022   22.8063 C   0  0  0  0  0  0  0  0  0  0  0  0
    7.1432   15.5546   22.2357 N   0  0  0  0  0  0  0  0  0  0  0  0
    8.2367   14.5736   21.7654 C   0  0  0  0  0  0  0  0  0  0  0  0
    8.2876   13.4108   21.8328 O   0  0  0  0  0  0  0  0  0  0  0  0
    9.4984   15.3593   21.2061 C   0  0  0  0  0  0  0  0  0  0  0  0
    9.9296   14.9228   19.8161 C   0  0  0  0  0  0  0  0  0  0  0  0
   10.6971   15.0415   22.1095 C   0  0  0  0  0  0  0  0  0  0  0  0
    9.1792   17.1096   21.0994 Cl  0  0  0  0  0  0  0  0  0  0  0  0
    4.4613   15.3722   24.9941 C   0  0  0  0  0  0  0  0  0  0  0  0
    3.7400   16.5723   25.0194 C   0  0  0  0  0  0  0  0  0  0  0  0
    2.4998   16.6632   25.6549 C   0  0  0  0  0  0  0  0  0  0  0  0
    1.9681   15.5624   26.3345 C   0  0  0  0  0  0  0  0  0  0  0  0
    0.7470   15.6504   27.0198 C   0  0  0  0  0  0  0  0  0  0  0  0
    0.2599   14.5620   27.7410 C   0  0  0  0  0  0  0  0  0  0  0  0
    0.9880   13.3771   27.7905 C   0  0  0  0  0  0  0  0  0  0  0  0
    2.1941   13.2706   27.0996 C   0  0  0  0  0  0  0  0  0  0  0  0
    2.6923   14.3505   26.3536 C   0  0  0  0  0  0  0  0  0  0  0  0
    3.9081   14.2608   25.6503 C   0  0  0  0  0  0  0  0  0  0  0  0
  1  2  1  0
  2  3  2  0
  3  4  1  0
  4  5  1  0
  4  6  1  0
  6  7  1  0
  6  8  2  0
  8  9  1  0
  9 10  1  0
 10 11  2  0
 10 12  1  0
 12 13  1  0
 13 14  1  6
 14 15  1  0
 15 16  1  0
 16 17  2  0
 16 18  1  0
 18 19  1  0
 18 20  1  0
 18 21  1  0
 13 22  1  0
 22 23  2  0
 23 24  1  0
 24 25  2  0
 25 26  1  0
 26 27  2  0
 27 28  1  0
 28 29  2  0
 29 30  1  0
 30 31  2  0
  8  2  1  0
 31 22  1  0
 30 25  1  0
M  END
>  <alias>  (82) 
None

>  <rmsd(smina/fragmenstein)>  (82) 
0.516

>  <smiles>  (82) 
Cc1nn(C)c(C)c1CC(=O)N[C@@H](CNC(=O)C(C)(C)Cl)c1ccc2ccccc2c1

>  <gnina_score>  (82) 
6.155

>  <inspiration_score>  (82) 
None

>  <energy_score>  (82) 
-21.056557

>  <distance_score>  (82) 
0.334756

>  <gnina_score_min>  (82) 
6.038

>  <inchikey>  (82) 
JFBCKCOHMZLQMV-NRFANRHFSA-N

>  <exports>  (82) 
['/opt/xchem-fragalysis-2/maxwin/BulkDock/OUTPUTS/openbind_a71ev2a_c2_elabs_1LOUU54.sdf', '/opt/xchem-fragalysis-2/maxwin/BulkDock/OUTPUTS/openbind_a71ev2a_c2_elabs_1LSYIDY.sdf']

>  <name>  (82) 
P564654

>  <ref_pdb>  (82) 
A1346a

>  <subsites>  (82) 
None

>  <HIPPO Pose ID>  (82) 
564654

>  <ref_mols>  (82) 
A1346a

>  <HIPPO Compound ID>  (82) 
406317

>  <tags>  (82) 
openbind_a71ev2a_c2_elabs,syndirella_product,openbind_a71ev2a_c2_elabs_scored,BulkDock Fragalysis export,openbind_a71ev2a_c2_elabs_scored_top80percent,openbind_a71ev2a_c2_elabs_scored_6plus,openbind_a71ev2a_c2_elabs_scored_top80percent_despaghettified,syndirella_placed

>  <smina_score_min>  (82) 
-7.546

$$$$
P564657
     RDKit          3D

 32 34  0  0  0  0  0  0  0  0999 V2000
   11.6962   14.2859   18.9553 C   0  0  0  0  0  0  0  0  0  0  0  0
   10.9716   15.1164   19.9820 C   0  0  0  0  0  0  0  0  0  0  0  0
    9.6691   14.5176   20.4446 C   0  0  0  0  0  0  0  0  0  0  0  0
    9.0027   15.2619   21.5788 C   0  0  1  0  0  0  0  0  0  0  0  0
    8.7802   16.9680   21.1320 Cl  0  0  0  0  0  0  0  0  0  0  0  0
    7.6897   14.5300   21.9621 C   0  0  0  0  0  0  0  0  0  0  0  0
    7.6226   13.3677   21.9068 O   0  0  0  0  0  0  0  0  0  0  0  0
    6.6748   15.5616   22.4724 N   0  0  0  0  0  0  0  0  0  0  0  0
    5.4018   15.3810   23.1096 C   0  0  0  0  0  0  0  0  0  0  0  0
    5.5328   15.3838   24.6364 C   0  0  2  0  0  0  0  0  0  0  0  0
    6.4348   14.3815   25.1654 N   0  0  0  0  0  0  0  0  0  0  0  0
    7.6265   14.5181   26.1289 C   0  0  0  0  0  0  0  0  0  0  0  0
    8.1212   15.4695   26.5908 O   0  0  0  0  0  0  0  0  0  0  0  0
    8.1301   13.1672   26.5883 C   0  0  0  0  0  0  0  0  0  0  0  0
    8.0713   11.9585   25.7280 C   0  0  0  0  0  0  0  0  0  0  0  0
    7.2575   10.8102   25.9260 C   0  0  0  0  0  0  0  0  0  0  0  0
    6.1777   10.5963   26.9210 C   0  0  0  0  0  0  0  0  0  0  0  0
    7.6155    9.8088   25.1227 N   0  0  0  0  0  0  0  0  0  0  0  0
    8.6035   10.3161   24.3621 N   0  0  0  0  0  0  0  0  0  0  0  0
    9.2665    9.4584   23.4054 C   0  0  0  0  0  0  0  0  0  0  0  0
    8.9071   11.6172   24.6761 C   0  0  0  0  0  0  0  0  0  0  0  0
    9.9817   12.3865   23.9989 C   0  0  0  0  0  0  0  0  0  0  0  0
    4.1845   15.3842   25.3230 C   0  0  0  0  0  0  0  0  0  0  0  0
    3.4425   16.5744   25.3415 C   0  0  0  0  0  0  0  0  0  0  0  0
    2.2002   16.6349   25.9682 C   0  0  0  0  0  0  0  0  0  0  0  0
    1.6914   15.5153   26.6349 C   0  0  0  0  0  0  0  0  0  0  0  0
    0.4680   15.5727   27.3144 C   0  0  0  0  0  0  0  0  0  0  0  0
    0.0005   14.4661   28.0210 C   0  0  0  0  0  0  0  0  0  0  0  0
    0.7457   13.2904   28.0538 C   0  0  0  0  0  0  0  0  0  0  0  0
    1.9528   13.2102   27.3634 C   0  0  0  0  0  0  0  0  0  0  0  0
    2.4360   14.3139   26.6461 C   0  0  0  0  0  0  0  0  0  0  0  0
    3.6568   14.2536   25.9601 C   0  0  0  0  0  0  0  0  0  0  0  0
  1  2  1  0
  2  3  1  0
  3  4  1  0
  4  5  1  6
  4  6  1  0
  6  7  2  0
  6  8  1  0
  8  9  1  0
 10  9  1  6
 10 11  1  0
 11 12  1  0
 12 13  2  0
 12 14  1  0
 14 15  1  0
 15 16  1  0
 16 17  1  0
 16 18  2  0
 18 19  1  0
 19 20  1  0
 19 21  1  0
 21 22  1  0
 10 23  1  0
 23 24  2  0
 24 25  1  0
 25 26  2  0
 26 27  1  0
 27 28  2  0
 28 29  1  0
 29 30  2  0
 30 31  1  0
 31 32  2  0
 21 15  2  0
 32 23  1  0
 31 26  1  0
M  END
>  <alias>  (83) 
None

>  <rmsd(smina/fragmenstein)>  (83) 
0.531

>  <smiles>  (83) 
CCC[C@@H](Cl)C(=O)NC[C@H](NC(=O)Cc1c(C)nn(C)c1C)c1ccc2ccccc2c1

>  <gnina_score>  (83) 
6.164

>  <inspiration_score>  (83) 
None

>  <energy_score>  (83) 
-5.114105

>  <distance_score>  (83) 
0.364449

>  <gnina_score_min>  (83) 
6.187

>  <inchikey>  (83) 
DPFJGTHXMVWMIM-PKTZIBPZSA-N

>  <exports>  (83) 
['/opt/xchem-fragalysis-2/maxwin/BulkDock/OUTPUTS/openbind_a71ev2a_c2_elabs_1LOUU54.sdf', '/opt/xchem-fragalysis-2/maxwin/BulkDock/OUTPUTS/openbind_a71ev2a_c2_elabs_1LSYIDY.sdf']

>  <name>  (83) 
P564657

>  <ref_pdb>  (83) 
A1346a

>  <subsites>  (83) 
None

>  <HIPPO Pose ID>  (83) 
564657

>  <ref_mols>  (83) 
A1346a

>  <HIPPO Compound ID>  (83) 
406319

>  <tags>  (83) 
openbind_a71ev2a_c2_elabs,syndirella_product,openbind_a71ev2a_c2_elabs_scored,BulkDock Fragalysis export,openbind_a71ev2a_c2_elabs_scored_top80percent,openbind_a71ev2a_c2_elabs_scored_6plus,openbind_a71ev2a_c2_elabs_scored_top80percent_despaghettified,syndirella_placed

>  <smina_score_min>  (83) 
-6.973

$$$$
P564661
     RDKit          3D

 32 34  0  0  0  0  0  0  0  0999 V2000
    6.1962   10.6195   26.9368 C   0  0  0  0  0  0  0  0  0  0  0  0
    7.2644   10.8096   25.9251 C   0  0  0  0  0  0  0  0  0  0  0  0
    7.5924    9.7983   25.1210 N   0  0  0  0  0  0  0  0  0  0  0  0
    8.5857   10.2806   24.3492 N   0  0  0  0  0  0  0  0  0  0  0  0
    9.2354    9.4050   23.3988 C   0  0  0  0  0  0  0  0  0  0  0  0
    8.9018   11.5831   24.6416 C   0  0  0  0  0  0  0  0  0  0  0  0
    9.9673   12.3369   23.9385 C   0  0  0  0  0  0  0  0  0  0  0  0
    8.0922   11.9430   25.7059 C   0  0  0  0  0  0  0  0  0  0  0  0
    8.1893   13.1613   26.5476 C   0  0  0  0  0  0  0  0  0  0  0  0
    7.6800   14.5122   26.0929 C   0  0  0  0  0  0  0  0  0  0  0  0
    8.1166   15.4584   26.6199 O   0  0  0  0  0  0  0  0  0  0  0  0
    6.5627   14.3814   25.0432 N   0  0  0  0  0  0  0  0  0  0  0  0
    5.6751   15.3798   24.4847 C   0  0  1  0  0  0  0  0  0  0  0  0
    5.5914   15.3741   22.9499 C   0  0  0  0  0  0  0  0  0  0  0  0
    6.8811   15.5896   22.3375 N   0  0  0  0  0  0  0  0  0  0  0  0
    7.9041   14.5841   21.7822 C   0  0  0  0  0  0  0  0  0  0  0  0
    7.8358   13.4285   21.6606 O   0  0  0  0  0  0  0  0  0  0  0  0
    9.2380   15.3406   21.4550 C   0  0  2  0  0  0  0  0  0  0  0  0
    8.9696   17.0354   20.9915 Cl  0  0  0  0  0  0  0  0  0  0  0  0
   10.2333   14.6025   20.5312 C   0  0  0  0  0  0  0  0  0  0  0  0
   10.4208   15.2049   19.1407 C   0  0  0  0  0  0  0  0  0  0  0  0
   11.5980   14.4331   21.2161 C   0  0  0  0  0  0  0  0  0  0  0  0
    4.3171   15.3862   25.1635 C   0  0  0  0  0  0  0  0  0  0  0  0
    3.5829   16.5802   25.1924 C   0  0  0  0  0  0  0  0  0  0  0  0
    2.3442   16.6514   25.8291 C   0  0  0  0  0  0  0  0  0  0  0  0
    1.8290   15.5379   26.5013 C   0  0  0  0  0  0  0  0  0  0  0  0
    0.6090   15.6060   27.1883 C   0  0  0  0  0  0  0  0  0  0  0  0
    0.1361   14.5054   27.9006 C   0  0  0  0  0  0  0  0  0  0  0  0
    0.8750   13.3263   27.9355 C   0  0  0  0  0  0  0  0  0  0  0  0
    2.0797   13.2376   27.2402 C   0  0  0  0  0  0  0  0  0  0  0  0
    2.5662   14.3328   26.5102 C   0  0  0  0  0  0  0  0  0  0  0  0
    3.7824   14.2624   25.8103 C   0  0  0  0  0  0  0  0  0  0  0  0
  1  2  1  0
  2  3  2  0
  3  4  1  0
  4  5  1  0
  4  6  1  0
  6  7  1  0
  6  8  2  0
  8  9  1  0
  9 10  1  0
 10 11  2  0
 10 12  1  0
 12 13  1  0
 13 14  1  6
 14 15  1  0
 15 16  1  0
 16 17  2  0
 16 18  1  0
 18 19  1  6
 18 20  1  0
 20 21  1  0
 20 22  1  0
 13 23  1  0
 23 24  2  0
 24 25  1  0
 25 26  2  0
 26 27  1  0
 27 28  2  0
 28 29  1  0
 29 30  2  0
 30 31  1  0
 31 32  2  0
  8  2  1  0
 32 23  1  0
 31 26  1  0
M  END
>  <alias>  (84) 
None

>  <rmsd(smina/fragmenstein)>  (84) 
0.404

>  <smiles>  (84) 
Cc1nn(C)c(C)c1CC(=O)N[C@@H](CNC(=O)[C@H](Cl)C(C)C)c1ccc2ccccc2c1

>  <gnina_score>  (84) 
6.276

>  <inspiration_score>  (84) 
None

>  <energy_score>  (84) 
-14.960244

>  <distance_score>  (84) 
0.284027

>  <gnina_score_min>  (84) 
6.315

>  <inchikey>  (84) 
WRNGVMMIZCKRHQ-LADGPHEKSA-N

>  <exports>  (84) 
['/opt/xchem-fragalysis-2/maxwin/BulkDock/OUTPUTS/openbind_a71ev2a_c2_elabs_1LOUU54.sdf', '/opt/xchem-fragalysis-2/maxwin/BulkDock/OUTPUTS/openbind_a71ev2a_c2_elabs_1LSYIDY.sdf']

>  <name>  (84) 
P564661

>  <ref_pdb>  (84) 
A1346a

>  <subsites>  (84) 
None

>  <HIPPO Pose ID>  (84) 
564661

>  <ref_mols>  (84) 
A1346a

>  <HIPPO Compound ID>  (84) 
406320

>  <tags>  (84) 
openbind_a71ev2a_c2_elabs,syndirella_product,openbind_a71ev2a_c2_elabs_scored,BulkDock Fragalysis export,openbind_a71ev2a_c2_elabs_scored_top80percent,openbind_a71ev2a_c2_elabs_scored_6plus,openbind_a71ev2a_c2_elabs_scored_top80percent_despaghettified,syndirella_placed

>  <smina_score_min>  (84) 
-7.592

$$$$
P564664
     RDKit          3D

 32 35  0  0  0  0  0  0  0  0999 V2000
    6.2307   10.5581   26.9426 C   0  0  0  0  0  0  0  0  0  0  0  0
    7.3408   10.7117   25.9699 C   0  0  0  0  0  0  0  0  0  0  0  0
    7.6829    9.6834   25.1909 N   0  0  0  0  0  0  0  0  0  0  0  0
    8.6747   10.1565   24.4122 N   0  0  0  0  0  0  0  0  0  0  0  0
    9.2730    9.2973   23.4153 C   0  0  0  0  0  0  0  0  0  0  0  0
    8.9984   11.4555   24.7002 C   0  0  0  0  0  0  0  0  0  0  0  0
   10.0488   12.2121   23.9851 C   0  0  0  0  0  0  0  0  0  0  0  0
    8.1594   11.8469   25.7284 C   0  0  0  0  0  0  0  0  0  0  0  0
    8.1422   13.1601   26.4329 C   0  0  0  0  0  0  0  0  0  0  0  0
    7.5053   14.3707   25.7518 C   0  0  0  0  0  0  0  0  0  0  0  0
    7.7642   15.4399   26.1433 O   0  0  0  0  0  0  0  0  0  0  0  0
    6.5044   13.9176   24.6695 N   0  0  0  0  0  0  0  0  0  0  0  0
    5.5426   14.6745   23.9072 C   0  0  2  0  0  0  0  0  0  0  0  0
    6.1214   15.8841   23.1638 C   0  0  0  0  0  0  0  0  0  0  0  0
    7.3834   15.8438   22.4690 N   0  0  0  0  0  0  0  0  0  0  0  0
    8.1651   14.6524   21.8770 C   0  0  0  0  0  0  0  0  0  0  0  0
    7.9478   13.5046   21.9260 O   0  0  0  0  0  0  0  0  0  0  0  0
    9.5605   15.3264   21.1843 C   0  0  0  0  0  0  0  0  0  0  0  0
    9.2106   16.9873   20.5517 Cl  0  0  0  0  0  0  0  0  0  0  0  0
   10.8335   15.2533   22.0720 C   0  0  0  0  0  0  0  0  0  0  0  0
   11.4701   14.2359   21.1573 C   0  0  0  0  0  0  0  0  0  0  0  0
   10.3172   14.4315   20.1805 C   0  0  0  0  0  0  0  0  0  0  0  0
    4.3374   15.0026   24.8092 C   0  0  0  0  0  0  0  0  0  0  0  0
    3.7601   16.2754   24.9000 C   0  0  0  0  0  0  0  0  0  0  0  0
    2.6117   16.5072   25.6663 C   0  0  0  0  0  0  0  0  0  0  0  0
    2.0263   15.4772   26.4092 C   0  0  0  0  0  0  0  0  0  0  0  0
    0.8664   15.6896   27.1709 C   0  0  0  0  0  0  0  0  0  0  0  0
    0.3198   14.6584   27.9335 C   0  0  0  0  0  0  0  0  0  0  0  0
    0.9364   13.4116   27.9599 C   0  0  0  0  0  0  0  0  0  0  0  0
    2.0854   13.1865   27.2024 C   0  0  0  0  0  0  0  0  0  0  0  0
    2.6302   14.2040   26.4023 C   0  0  0  0  0  0  0  0  0  0  0  0
    3.7615   13.9853   25.5933 C   0  0  0  0  0  0  0  0  0  0  0  0
  1  2  1  0
  2  3  2  0
  3  4  1  0
  4  5  1  0
  4  6  1  0
  6  7  1  0
  6  8  2  0
  8  9  1  0
  9 10  1  0
 10 11  2  0
 10 12  1  0
 12 13  1  0
 13 14  1  1
 14 15  1  0
 15 16  1  0
 16 17  2  0
 16 18  1  0
 18 19  1  0
 18 20  1  0
 20 21  1  0
 21 22  1  0
 13 23  1  0
 23 24  2  0
 24 25  1  0
 25 26  2  0
 26 27  1  0
 27 28  2  0
 28 29  1  0
 29 30  2  0
 30 31  1  0
 31 32  2  0
  8  2  1  0
 22 18  1  0
 32 23  1  0
 31 26  1  0
M  END
>  <alias>  (85) 
None

>  <rmsd(smina/fragmenstein)>  (85) 
0.488

>  <smiles>  (85) 
Cc1nn(C)c(C)c1CC(=O)N[C@H](CNC(=O)C1(Cl)CCC1)c1ccc2ccccc2c1

>  <gnina_score>  (85) 
6.436

>  <inspiration_score>  (85) 
None

>  <energy_score>  (85) 
-127.106031

>  <distance_score>  (85) 
0.381887

>  <gnina_score_min>  (85) 
6.369

>  <inchikey>  (85) 
KOPKBZLJHIBABW-JOCHJYFZSA-N

>  <exports>  (85) 
['/opt/xchem-fragalysis-2/maxwin/BulkDock/OUTPUTS/openbind_a71ev2a_c2_elabs_1LOUU54.sdf', '/opt/xchem-fragalysis-2/maxwin/BulkDock/OUTPUTS/openbind_a71ev2a_c2_elabs_1LSYIDY.sdf']

>  <name>  (85) 
P564664

>  <ref_pdb>  (85) 
A1346a

>  <subsites>  (85) 
None

>  <HIPPO Pose ID>  (85) 
564664

>  <ref_mols>  (85) 
A1346a

>  <HIPPO Compound ID>  (85) 
406321

>  <tags>  (85) 
openbind_a71ev2a_c2_elabs,syndirella_product,openbind_a71ev2a_c2_elabs_scored,BulkDock Fragalysis export,openbind_a71ev2a_c2_elabs_scored_top80percent,openbind_a71ev2a_c2_elabs_scored_6plus,openbind_a71ev2a_c2_elabs_scored_top80percent_despaghettified,syndirella_placed

>  <smina_score_min>  (85) 
-7.956

$$$$
P564667
     RDKit          3D

 32 34  0  0  0  0  0  0  0  0999 V2000
   10.0305   16.9486   18.3485 C   0  0  0  0  0  0  0  0  0  0  0  0
    9.7285   15.7507   18.8519 C   0  0  0  0  0  0  0  0  0  0  0  0
   10.0782   15.1609   20.1790 C   0  0  0  0  0  0  0  0  0  0  0  0
    9.2210   15.6316   21.3549 C   0  0  1  0  0  0  0  0  0  0  0  0
    8.8885   17.3750   21.2736 Cl  0  0  0  0  0  0  0  0  0  0  0  0
    7.9626   14.7689   21.6761 C   0  0  0  0  0  0  0  0  0  0  0  0
    7.9930   13.6155   21.5176 O   0  0  0  0  0  0  0  0  0  0  0  0
    6.8639   15.6642   22.2770 N   0  0  0  0  0  0  0  0  0  0  0  0
    5.6059   15.3177   22.8986 C   0  0  0  0  0  0  0  0  0  0  0  0
    5.7002   15.3552   24.4332 C   0  0  2  0  0  0  0  0  0  0  0  0
    6.6048   14.3745   24.9944 N   0  0  0  0  0  0  0  0  0  0  0  0
    7.7007   14.5224   26.0649 C   0  0  0  0  0  0  0  0  0  0  0  0
    8.1025   15.4734   26.6107 O   0  0  0  0  0  0  0  0  0  0  0  0
    8.2407   13.1794   26.5096 C   0  0  0  0  0  0  0  0  0  0  0  0
    8.1395   11.9600   25.6688 C   0  0  0  0  0  0  0  0  0  0  0  0
    7.3150   10.8252   25.8945 C   0  0  0  0  0  0  0  0  0  0  0  0
    6.2505   10.6347   26.9107 C   0  0  0  0  0  0  0  0  0  0  0  0
    7.6408    9.8140   25.0892 N   0  0  0  0  0  0  0  0  0  0  0  0
    8.6257   10.3008   24.3084 N   0  0  0  0  0  0  0  0  0  0  0  0
    9.2732    9.4226   23.3599 C   0  0  0  0  0  0  0  0  0  0  0  0
    8.9358   11.6072   24.5911 C   0  0  0  0  0  0  0  0  0  0  0  0
    9.9875   12.3727   23.8724 C   0  0  0  0  0  0  0  0  0  0  0  0
    4.3497   15.3583   25.1272 C   0  0  0  0  0  0  0  0  0  0  0  0
    3.6123   16.5505   25.1604 C   0  0  0  0  0  0  0  0  0  0  0  0
    2.3782   16.6204   25.8062 C   0  0  0  0  0  0  0  0  0  0  0  0
    1.8705   15.5072   26.4839 C   0  0  0  0  0  0  0  0  0  0  0  0
    0.6529   15.5732   27.1758 C   0  0  0  0  0  0  0  0  0  0  0  0
    0.1861   14.4726   27.8921 C   0  0  0  0  0  0  0  0  0  0  0  0
    0.9297   13.2964   27.9275 C   0  0  0  0  0  0  0  0  0  0  0  0
    2.1330   13.2108   27.2292 C   0  0  0  0  0  0  0  0  0  0  0  0
    2.6125   14.3048   26.4923 C   0  0  0  0  0  0  0  0  0  0  0  0
    3.8246   14.2358   25.7835 C   0  0  0  0  0  0  0  0  0  0  0  0
  1  2  2  0
  2  3  1  0
  3  4  1  0
  4  5  1  6
  4  6  1  0
  6  7  2  0
  6  8  1  0
  8  9  1  0
 10  9  1  6
 10 11  1  0
 11 12  1  0
 12 13  2  0
 12 14  1  0
 14 15  1  0
 15 16  1  0
 16 17  1  0
 16 18  2  0
 18 19  1  0
 19 20  1  0
 19 21  1  0
 21 22  1  0
 10 23  1  0
 23 24  2  0
 24 25  1  0
 25 26  2  0
 26 27  1  0
 27 28  2  0
 28 29  1  0
 29 30  2  0
 30 31  1  0
 31 32  2  0
 21 15  2  0
 32 23  1  0
 31 26  1  0
M  END
>  <alias>  (86) 
None

>  <rmsd(smina/fragmenstein)>  (86) 
0.393

>  <smiles>  (86) 
C=CC[C@@H](Cl)C(=O)NC[C@H](NC(=O)Cc1c(C)nn(C)c1C)c1ccc2ccccc2c1

>  <gnina_score>  (86) 
5.956

>  <inspiration_score>  (86) 
None

>  <energy_score>  (86) 
-0.694674

>  <distance_score>  (86) 
0.334318

>  <gnina_score_min>  (86) 
5.911

>  <inchikey>  (86) 
FRSSDDAUKUDGGC-PKTZIBPZSA-N

>  <exports>  (86) 
['/opt/xchem-fragalysis-2/maxwin/BulkDock/OUTPUTS/openbind_a71ev2a_c2_elabs_1LOUU54.sdf', '/opt/xchem-fragalysis-2/maxwin/BulkDock/OUTPUTS/openbind_a71ev2a_c2_elabs_1LSYIDY.sdf']

>  <name>  (86) 
P564667

>  <ref_pdb>  (86) 
A1346a

>  <subsites>  (86) 
None

>  <HIPPO Pose ID>  (86) 
564667

>  <ref_mols>  (86) 
A1346a

>  <HIPPO Compound ID>  (86) 
406322

>  <tags>  (86) 
openbind_a71ev2a_c2_elabs,syndirella_product,openbind_a71ev2a_c2_elabs_scored,BulkDock Fragalysis export,openbind_a71ev2a_c2_elabs_scored_top80percent,openbind_a71ev2a_c2_elabs_scored_top80percent_despaghettified,syndirella_placed

>  <smina_score_min>  (86) 
-7.115

$$$$
P564670
     RDKit          3D

 33 36  0  0  0  0  0  0  0  0999 V2000
    6.2778   10.6820   26.8971 C   0  0  0  0  0  0  0  0  0  0  0  0
    7.3534   10.8481   25.8882 C   0  0  0  0  0  0  0  0  0  0  0  0
    7.6590    9.8293   25.0841 N   0  0  0  0  0  0  0  0  0  0  0  0
    8.6627   10.2881   24.3117 N   0  0  0  0  0  0  0  0  0  0  0  0
    9.2846    9.3960   23.3591 C   0  0  0  0  0  0  0  0  0  0  0  0
    9.0090   11.5829   24.6016 C   0  0  0  0  0  0  0  0  0  0  0  0
   10.0915   12.3223   23.9017 C   0  0  0  0  0  0  0  0  0  0  0  0
    8.2049   11.9630   25.6641 C   0  0  0  0  0  0  0  0  0  0  0  0
    8.3186   13.1993   26.4800 C   0  0  0  0  0  0  0  0  0  0  0  0
    7.7262   14.5238   26.0388 C   0  0  0  0  0  0  0  0  0  0  0  0
    8.0603   15.4830   26.6150 O   0  0  0  0  0  0  0  0  0  0  0  0
    6.6985   14.3470   24.9066 N   0  0  0  0  0  0  0  0  0  0  0  0
    5.7907   15.2985   24.3045 C   0  0  1  0  0  0  0  0  0  0  0  0
    5.6503   15.1507   22.7774 C   0  0  0  0  0  0  0  0  0  0  0  0
    6.8147   15.6272   22.0606 N   0  0  0  0  0  0  0  0  0  0  0  0
    8.1085   14.9034   21.6679 C   0  0  0  0  0  0  0  0  0  0  0  0
    8.4147   13.7884   21.7895 O   0  0  0  0  0  0  0  0  0  0  0  0
    9.1199   15.8867   21.0572 C   0  0  1  0  0  0  0  0  0  0  0  0
    8.6449   17.6230   21.0016 Cl  0  0  0  0  0  0  0  0  0  0  0  0
   10.5507   15.8215   21.4774 C   0  0  0  0  0  0  0  0  0  0  0  0
   10.2190   15.4975   20.0341 C   0  0  0  0  0  0  0  0  0  0  0  0
   10.3439   16.4154   18.8354 C   0  0  0  0  0  0  0  0  0  0  0  0
   10.7344   14.1383   19.7296 C   0  0  0  0  0  0  0  0  0  0  0  0
    4.4520   15.3253   25.0277 C   0  0  0  0  0  0  0  0  0  0  0  0
    3.7259   16.5235   25.0688 C   0  0  0  0  0  0  0  0  0  0  0  0
    2.4974   16.6059   25.7257 C   0  0  0  0  0  0  0  0  0  0  0  0
    1.9826   15.4982   26.4070 C   0  0  0  0  0  0  0  0  0  0  0  0
    0.7659   15.5742   27.1012 C   0  0  0  0  0  0  0  0  0  0  0  0
    0.2909   14.4780   27.8187 C   0  0  0  0  0  0  0  0  0  0  0  0
    1.0280   13.2981   27.8575 C   0  0  0  0  0  0  0  0  0  0  0  0
    2.2318   13.2046   27.1601 C   0  0  0  0  0  0  0  0  0  0  0  0
    2.7166   14.2912   26.4150 C   0  0  0  0  0  0  0  0  0  0  0  0
    3.9236   14.2107   25.6955 C   0  0  0  0  0  0  0  0  0  0  0  0
  1  2  1  0
  2  3  2  0
  3  4  1  0
  4  5  1  0
  4  6  1  0
  6  7  1  0
  6  8  2  0
  8  9  1  0
  9 10  1  0
 10 11  2  0
 10 12  1  0
 12 13  1  0
 13 14  1  6
 14 15  1  0
 15 16  1  0
 16 17  2  0
 16 18  1  0
 18 19  1  6
 18 20  1  0
 20 21  1  0
 21 22  1  0
 21 23  1  0
 13 24  1  0
 24 25  2  0
 25 26  1  0
 26 27  2  0
 27 28  1  0
 28 29  2  0
 29 30  1  0
 30 31  2  0
 31 32  1  0
 32 33  2  0
  8  2  1  0
 21 18  1  0
 33 24  1  0
 32 27  1  0
M  END
>  <alias>  (87) 
None

>  <rmsd(smina/fragmenstein)>  (87) 
0.416

>  <smiles>  (87) 
Cc1nn(C)c(C)c1CC(=O)N[C@@H](CNC(=O)[C@@]1(Cl)CC1(C)C)c1ccc2ccccc2c1

>  <gnina_score>  (87) 
6.149

>  <inspiration_score>  (87) 
None

>  <energy_score>  (87) 
-22.263306

>  <distance_score>  (87) 
0.416746

>  <gnina_score_min>  (87) 
6.054

>  <inchikey>  (87) 
IGGQJTOBXFJZQT-NVQXNPDNSA-N

>  <exports>  (87) 
['/opt/xchem-fragalysis-2/maxwin/BulkDock/OUTPUTS/openbind_a71ev2a_c2_elabs_1LOUU54.sdf', '/opt/xchem-fragalysis-2/maxwin/BulkDock/OUTPUTS/openbind_a71ev2a_c2_elabs_1LSYIDY.sdf']

>  <name>  (87) 
P564670

>  <ref_pdb>  (87) 
A1346a

>  <subsites>  (87) 
None

>  <HIPPO Pose ID>  (87) 
564670

>  <ref_mols>  (87) 
A1346a

>  <HIPPO Compound ID>  (87) 
406323

>  <tags>  (87) 
openbind_a71ev2a_c2_elabs,syndirella_product,openbind_a71ev2a_c2_elabs_scored,BulkDock Fragalysis export,openbind_a71ev2a_c2_elabs_scored_top80percent,openbind_a71ev2a_c2_elabs_scored_6plus,openbind_a71ev2a_c2_elabs_scored_top80percent_despaghettified,syndirella_placed

>  <smina_score_min>  (87) 
-7.401

$$$$
P564671
     RDKit          3D

 33 35  0  0  0  0  0  0  0  0999 V2000
    5.8538   10.2657   26.8967 C   0  0  0  0  0  0  0  0  0  0  0  0
    7.0277   10.5887   26.0522 C   0  0  0  0  0  0  0  0  0  0  0  0
    7.5047    9.6821   25.1993 N   0  0  0  0  0  0  0  0  0  0  0  0
    8.5486   10.2891   24.6058 N   0  0  0  0  0  0  0  0  0  0  0  0
    9.2756    9.5949   23.5666 C   0  0  0  0  0  0  0  0  0  0  0  0
    8.8054   11.5262   25.1343 C   0  0  0  0  0  0  0  0  0  0  0  0
    9.9405   12.3839   24.7500 C   0  0  0  0  0  0  0  0  0  0  0  0
    7.8034   11.7751   26.0504 C   0  0  0  0  0  0  0  0  0  0  0  0
    7.6323   12.9458   26.9418 C   0  0  0  0  0  0  0  0  0  0  0  0
    7.4940   14.3396   26.3472 C   0  0  0  0  0  0  0  0  0  0  0  0
    8.1601   15.2225   26.7237 O   0  0  0  0  0  0  0  0  0  0  0  0
    6.3267   14.3268   25.3347 N   0  0  0  0  0  0  0  0  0  0  0  0
    5.6694   15.4164   24.6431 C   0  0  1  0  0  0  0  0  0  0  0  0
    5.5966   15.3739   23.1097 C   0  0  0  0  0  0  0  0  0  0  0  0
    6.8572   15.4200   22.4107 N   0  0  0  0  0  0  0  0  0  0  0  0
    7.8005   14.2889   21.9799 C   0  0  0  0  0  0  0  0  0  0  0  0
    7.6751   13.1330   22.0521 O   0  0  0  0  0  0  0  0  0  0  0  0
    9.0573   14.8426   21.2502 C   0  0  1  0  0  0  0  0  0  0  0  0
    9.1146   16.6089   21.0693 Cl  0  0  0  0  0  0  0  0  0  0  0  0
   10.3189   14.2540   21.8780 C   0  0  0  0  0  0  0  0  0  0  0  0
   11.6043   14.4550   21.1118 C   0  0  0  0  0  0  0  0  0  0  0  0
   10.5111   14.7546   23.1283 F   0  0  0  0  0  0  0  0  0  0  0  0
   10.1672   12.9159   22.0534 F   0  0  0  0  0  0  0  0  0  0  0  0
    4.2592   15.5336   25.2355 C   0  0  0  0  0  0  0  0  0  0  0  0
    3.6065   16.7695   25.2611 C   0  0  0  0  0  0  0  0  0  0  0  0
    2.3481   16.9029   25.8543 C   0  0  0  0  0  0  0  0  0  0  0  0
    1.7333   15.8120   26.4857 C   0  0  0  0  0  0  0  0  0  0  0  0
    0.5054   15.9408   27.1506 C   0  0  0  0  0  0  0  0  0  0  0  0
   -0.0510   14.8566   27.8295 C   0  0  0  0  0  0  0  0  0  0  0  0
    0.6087   13.6315   27.8499 C   0  0  0  0  0  0  0  0  0  0  0  0
    1.8101   13.4772   27.1645 C   0  0  0  0  0  0  0  0  0  0  0  0
    2.3795   14.5598   26.4782 C   0  0  0  0  0  0  0  0  0  0  0  0
    3.6026   14.4273   25.8115 C   0  0  0  0  0  0  0  0  0  0  0  0
  1  2  1  0
  2  3  2  0
  3  4  1  0
  4  5  1  0
  4  6  1  0
  6  7  1  0
  6  8  2  0
  8  9  1  0
  9 10  1  0
 10 11  2  0
 10 12  1  0
 12 13  1  0
 13 14  1  6
 14 15  1  0
 15 16  1  0
 16 17  2  0
 16 18  1  0
 18 19  1  1
 18 20  1  0
 20 21  1  0
 20 22  1  0
 20 23  1  0
 13 24  1  0
 24 25  2  0
 25 26  1  0
 26 27  2  0
 27 28  1  0
 28 29  2  0
 29 30  1  0
 30 31  2  0
 31 32  1  0
 32 33  2  0
  8  2  1  0
 33 24  1  0
 32 27  1  0
M  END
>  <alias>  (88) 
None

>  <rmsd(smina/fragmenstein)>  (88) 
0.415

>  <smiles>  (88) 
Cc1nn(C)c(C)c1CC(=O)N[C@@H](CNC(=O)[C@@H](Cl)C(C)(F)F)c1ccc2ccccc2c1

>  <gnina_score>  (88) 
6.345

>  <inspiration_score>  (88) 
None

>  <energy_score>  (88) 
-2.613603

>  <distance_score>  (88) 
0.471589

>  <gnina_score_min>  (88) 
6.236

>  <inchikey>  (88) 
QQGFUDJPEUMNHX-RBBKRZOGSA-N

>  <exports>  (88) 
['/opt/xchem-fragalysis-2/maxwin/BulkDock/OUTPUTS/openbind_a71ev2a_c2_elabs_1LOUU54.sdf', '/opt/xchem-fragalysis-2/maxwin/BulkDock/OUTPUTS/openbind_a71ev2a_c2_elabs_1LSYIDY.sdf']

>  <name>  (88) 
P564671

>  <ref_pdb>  (88) 
A1346a

>  <subsites>  (88) 
None

>  <HIPPO Pose ID>  (88) 
564671

>  <ref_mols>  (88) 
A1346a

>  <HIPPO Compound ID>  (88) 
406324

>  <tags>  (88) 
openbind_a71ev2a_c2_elabs,syndirella_product,openbind_a71ev2a_c2_elabs_scored,BulkDock Fragalysis export,openbind_a71ev2a_c2_elabs_scored_top80percent,openbind_a71ev2a_c2_elabs_scored_6plus,openbind_a71ev2a_c2_elabs_scored_top80percent_despaghettified,syndirella_placed

>  <smina_score_min>  (88) 
-6.763

$$$$
P564674
     RDKit          3D

 33 36  0  0  0  0  0  0  0  0999 V2000
    6.1302   10.5572   26.9119 C   0  0  0  0  0  0  0  0  0  0  0  0
    7.2271   10.7641   25.9346 C   0  0  0  0  0  0  0  0  0  0  0  0
    7.5925    9.7632   25.1332 N   0  0  0  0  0  0  0  0  0  0  0  0
    8.5974   10.2666   24.3922 N   0  0  0  0  0  0  0  0  0  0  0  0
    9.2626    9.4178   23.4293 C   0  0  0  0  0  0  0  0  0  0  0  0
    8.9019   11.5631   24.7181 C   0  0  0  0  0  0  0  0  0  0  0  0
    9.9921   12.3282   24.0680 C   0  0  0  0  0  0  0  0  0  0  0  0
    8.0443   11.9108   25.7484 C   0  0  0  0  0  0  0  0  0  0  0  0
    8.0734   13.1321   26.5920 C   0  0  0  0  0  0  0  0  0  0  0  0
    7.6395   14.4823   26.0642 C   0  0  0  0  0  0  0  0  0  0  0  0
    8.1465   15.4359   26.5065 O   0  0  0  0  0  0  0  0  0  0  0  0
    6.4830   14.3426   25.0601 N   0  0  0  0  0  0  0  0  0  0  0  0
    5.6369   15.3478   24.4556 C   0  0  1  0  0  0  0  0  0  0  0  0
    5.5842   15.3021   22.9193 C   0  0  0  0  0  0  0  0  0  0  0  0
    6.8579   15.6473   22.3268 N   0  0  0  0  0  0  0  0  0  0  0  0
    7.9911   14.7552   21.8150 C   0  0  0  0  0  0  0  0  0  0  0  0
    8.1180   13.6008   21.8563 O   0  0  0  0  0  0  0  0  0  0  0  0
    9.1442   15.5835   21.2560 C   0  0  1  0  0  0  0  0  0  0  0  0
    8.8779   17.3172   20.9425 Cl  0  0  0  0  0  0  0  0  0  0  0  0
   10.5567   15.2321   21.7336 C   0  0  0  0  0  0  0  0  0  0  0  0
   10.1395   14.9510   20.3495 C   0  0  0  0  0  0  0  0  0  0  0  0
   10.0470   13.6510   19.9565 F   0  0  0  0  0  0  0  0  0  0  0  0
   10.7171   15.6349   19.3084 F   0  0  0  0  0  0  0  0  0  0  0  0
    4.2707   15.3815   25.1181 C   0  0  0  0  0  0  0  0  0  0  0  0
    3.5644   16.5909   25.1562 C   0  0  0  0  0  0  0  0  0  0  0  0
    2.3305   16.6854   25.7997 C   0  0  0  0  0  0  0  0  0  0  0  0
    1.7956   15.5812   26.4727 C   0  0  0  0  0  0  0  0  0  0  0  0
    0.5842   15.6737   27.1722 C   0  0  0  0  0  0  0  0  0  0  0  0
    0.0960   14.5826   27.8891 C   0  0  0  0  0  0  0  0  0  0  0  0
    0.8111   13.3889   27.9163 C   0  0  0  0  0  0  0  0  0  0  0  0
    2.0047   13.2749   27.2063 C   0  0  0  0  0  0  0  0  0  0  0  0
    2.5057   14.3604   26.4721 C   0  0  0  0  0  0  0  0  0  0  0  0
    3.7133   14.2660   25.7617 C   0  0  0  0  0  0  0  0  0  0  0  0
  1  2  1  0
  2  3  2  0
  3  4  1  0
  4  5  1  0
  4  6  1  0
  6  7  1  0
  6  8  2  0
  8  9  1  0
  9 10  1  0
 10 11  2  0
 10 12  1  0
 12 13  1  0
 13 14  1  6
 14 15  1  0
 15 16  1  0
 16 17  2  0
 16 18  1  0
 18 19  1  6
 18 20  1  0
 20 21  1  0
 21 22  1  0
 21 23  1  0
 13 24  1  0
 24 25  2  0
 25 26  1  0
 26 27  2  0
 27 28  1  0
 28 29  2  0
 29 30  1  0
 30 31  2  0
 31 32  1  0
 32 33  2  0
  8  2  1  0
 21 18  1  0
 33 24  1  0
 32 27  1  0
M  END
>  <alias>  (89) 
None

>  <rmsd(smina/fragmenstein)>  (89) 
0.534

>  <smiles>  (89) 
Cc1nn(C)c(C)c1CC(=O)N[C@@H](CNC(=O)[C@@]1(Cl)CC1(F)F)c1ccc2ccccc2c1

>  <gnina_score>  (89) 
6.137

>  <inspiration_score>  (89) 
None

>  <energy_score>  (89) 
-2.101718

>  <distance_score>  (89) 
0.32467

>  <gnina_score_min>  (89) 
6.02

>  <inchikey>  (89) 
ANGALAWSDFQZIW-REWPJTCUSA-N

>  <exports>  (89) 
['/opt/xchem-fragalysis-2/maxwin/BulkDock/OUTPUTS/openbind_a71ev2a_c2_elabs_1LOUU54.sdf', '/opt/xchem-fragalysis-2/maxwin/BulkDock/OUTPUTS/openbind_a71ev2a_c2_elabs_1LSYIDY.sdf']

>  <name>  (89) 
P564674

>  <ref_pdb>  (89) 
A1346a

>  <subsites>  (89) 
None

>  <HIPPO Pose ID>  (89) 
564674

>  <ref_mols>  (89) 
A1346a

>  <HIPPO Compound ID>  (89) 
406325

>  <tags>  (89) 
openbind_a71ev2a_c2_elabs,syndirella_product,openbind_a71ev2a_c2_elabs_scored,BulkDock Fragalysis export,openbind_a71ev2a_c2_elabs_scored_top80percent,openbind_a71ev2a_c2_elabs_scored_6plus,openbind_a71ev2a_c2_elabs_scored_top80percent_despaghettified,syndirella_placed

>  <smina_score_min>  (89) 
-8.016

$$$$
P564677
     RDKit          3D

 33 36  0  0  0  0  0  0  0  0999 V2000
    5.9981   10.4483   26.9064 C   0  0  0  0  0  0  0  0  0  0  0  0
    7.1166   10.6644   25.9563 C   0  0  0  0  0  0  0  0  0  0  0  0
    7.5155    9.6663   25.1667 N   0  0  0  0  0  0  0  0  0  0  0  0
    8.5334   10.1820   24.4545 N   0  0  0  0  0  0  0  0  0  0  0  0
    9.2130    9.3647   23.4738 C   0  0  0  0  0  0  0  0  0  0  0  0
    8.8323   11.4693   24.8133 C   0  0  0  0  0  0  0  0  0  0  0  0
    9.9579   12.2145   24.2170 C   0  0  0  0  0  0  0  0  0  0  0  0
    7.9219   11.8235   25.7923 C   0  0  0  0  0  0  0  0  0  0  0  0
    7.8847   13.0480   26.6291 C   0  0  0  0  0  0  0  0  0  0  0  0
    7.5526   14.4067   26.0459 C   0  0  0  0  0  0  0  0  0  0  0  0
    8.1588   15.3387   26.4008 O   0  0  0  0  0  0  0  0  0  0  0  0
    6.3373   14.3053   25.1068 N   0  0  0  0  0  0  0  0  0  0  0  0
    5.5460   15.3418   24.4770 C   0  0  1  0  0  0  0  0  0  0  0  0
    5.4325   15.2766   22.9468 C   0  0  0  0  0  0  0  0  0  0  0  0
    6.6861   15.5263   22.2823 N   0  0  0  0  0  0  0  0  0  0  0  0
    7.8006   14.5692   21.8776 C   0  0  0  0  0  0  0  0  0  0  0  0
    7.8597   13.4111   21.9437 O   0  0  0  0  0  0  0  0  0  0  0  0
    9.0452   15.3240   21.3750 C   0  0  1  0  0  0  0  0  0  0  0  0
    8.8776   17.0303   20.8912 Cl  0  0  0  0  0  0  0  0  0  0  0  0
   10.3489   15.0319   22.0860 C   0  0  0  0  0  0  0  0  0  0  0  0
   10.1462   14.5134   20.7004 C   0  0  2  0  0  0  0  0  0  0  0  0
   11.1106   15.0437   19.7143 C   0  0  0  0  0  0  0  0  0  0  0  0
   11.5997   13.8935   18.5224 Cl  0  0  0  0  0  0  0  0  0  0  0  0
    4.1854   15.4221   25.1539 C   0  0  0  0  0  0  0  0  0  0  0  0
    3.5180   16.6512   25.2115 C   0  0  0  0  0  0  0  0  0  0  0  0
    2.2889   16.7694   25.8611 C   0  0  0  0  0  0  0  0  0  0  0  0
    1.7234   15.6701   26.5196 C   0  0  0  0  0  0  0  0  0  0  0  0
    0.5186   15.7835   27.2269 C   0  0  0  0  0  0  0  0  0  0  0  0
    0.0048   14.6946   27.9301 C   0  0  0  0  0  0  0  0  0  0  0  0
    0.6871   13.4816   27.9355 C   0  0  0  0  0  0  0  0  0  0  0  0
    1.8703   13.3448   27.2138 C   0  0  0  0  0  0  0  0  0  0  0  0
    2.3955   14.4293   26.4961 C   0  0  0  0  0  0  0  0  0  0  0  0
    3.5933   14.3118   25.7787 C   0  0  0  0  0  0  0  0  0  0  0  0
  1  2  1  0
  2  3  2  0
  3  4  1  0
  4  5  1  0
  4  6  1  0
  6  7  1  0
  6  8  2  0
  8  9  1  0
  9 10  1  0
 10 11  2  0
 10 12  1  0
 12 13  1  0
 13 14  1  6
 14 15  1  0
 15 16  1  0
 16 17  2  0
 16 18  1  0
 18 19  1  6
 18 20  1  0
 20 21  1  0
 21 22  1  6
 22 23  1  0
 13 24  1  0
 24 25  2  0
 25 26  1  0
 26 27  2  0
 27 28  1  0
 28 29  2  0
 29 30  1  0
 30 31  2  0
 31 32  1  0
 32 33  2  0
  8  2  1  0
 21 18  1  0
 33 24  1  0
 32 27  1  0
M  END
>  <alias>  (90) 
None

>  <rmsd(smina/fragmenstein)>  (90) 
0.524

>  <smiles>  (90) 
Cc1nn(C)c(C)c1CC(=O)N[C@@H](CNC(=O)[C@@]1(Cl)C[C@@H]1CCl)c1ccc2ccccc2c1

>  <gnina_score>  (90) 
6.313

>  <inspiration_score>  (90) 
None

>  <energy_score>  (90) 
-10.423611

>  <distance_score>  (90) 
0.325185

>  <gnina_score_min>  (90) 
6.3

>  <inchikey>  (90) 
HGKUQLLOFLEXLK-JLRUASKGSA-N

>  <exports>  (90) 
['/opt/xchem-fragalysis-2/maxwin/BulkDock/OUTPUTS/openbind_a71ev2a_c2_elabs_1LOUU54.sdf', '/opt/xchem-fragalysis-2/maxwin/BulkDock/OUTPUTS/openbind_a71ev2a_c2_elabs_1LSYIDY.sdf']

>  <name>  (90) 
P564677

>  <ref_pdb>  (90) 
A1346a

>  <subsites>  (90) 
None

>  <HIPPO Pose ID>  (90) 
564677

>  <ref_mols>  (90) 
A1346a

>  <HIPPO Compound ID>  (90) 
406326

>  <tags>  (90) 
openbind_a71ev2a_c2_elabs,syndirella_product,openbind_a71ev2a_c2_elabs_scored,BulkDock Fragalysis export,openbind_a71ev2a_c2_elabs_scored_top80percent,openbind_a71ev2a_c2_elabs_scored_6plus,openbind_a71ev2a_c2_elabs_scored_top80percent_despaghettified,syndirella_placed

>  <smina_score_min>  (90) 
-7.413

$$$$
P564681
     RDKit          3D

 33 35  0  0  0  0  0  0  0  0999 V2000
    5.9815   10.3637   26.9107 C   0  0  0  0  0  0  0  0  0  0  0  0
    7.1515   10.6154   26.0350 C   0  0  0  0  0  0  0  0  0  0  0  0
    7.5974    9.6545   25.2256 N   0  0  0  0  0  0  0  0  0  0  0  0
    8.6317   10.2095   24.5676 N   0  0  0  0  0  0  0  0  0  0  0  0
    9.3085    9.4499   23.5404 C   0  0  0  0  0  0  0  0  0  0  0  0
    8.9104   11.4792   25.0009 C   0  0  0  0  0  0  0  0  0  0  0  0
   10.0381   12.3062   24.5270 C   0  0  0  0  0  0  0  0  0  0  0  0
    7.9364   11.7904   25.9316 C   0  0  0  0  0  0  0  0  0  0  0  0
    7.7767   13.0559   26.6944 C   0  0  0  0  0  0  0  0  0  0  0  0
    7.3396   14.2946   25.9208 C   0  0  0  0  0  0  0  0  0  0  0  0
    7.7939   15.3399   26.1810 O   0  0  0  0  0  0  0  0  0  0  0  0
    6.2199   13.9072   24.9249 N   0  0  0  0  0  0  0  0  0  0  0  0
    5.3566   14.7384   24.1081 C   0  0  2  0  0  0  0  0  0  0  0  0
    6.0638   15.9514   23.5051 C   0  0  0  0  0  0  0  0  0  0  0  0
    7.1206   15.7914   22.5443 N   0  0  0  0  0  0  0  0  0  0  0  0
    7.5898   14.5449   21.7701 C   0  0  0  0  0  0  0  0  0  0  0  0
    7.1442   13.4657   21.7308 O   0  0  0  0  0  0  0  0  0  0  0  0
    8.9294   14.8938   21.0474 C   0  0  1  0  0  0  0  0  0  0  0  0
    9.2195   16.6449   20.8890 Cl  0  0  0  0  0  0  0  0  0  0  0  0
   10.0456   14.2144   21.8376 C   0  0  0  0  0  0  0  0  0  0  0  0
   11.4862   14.1876   21.3072 C   0  0  0  0  0  0  0  0  0  0  0  0
   12.3837   15.1045   22.1267 C   0  0  0  0  0  0  0  0  0  0  0  0
   11.6148   14.3883   19.8012 C   0  0  0  0  0  0  0  0  0  0  0  0
    4.1365   15.0969   24.9735 C   0  0  0  0  0  0  0  0  0  0  0  0
    3.6146   16.3897   25.1013 C   0  0  0  0  0  0  0  0  0  0  0  0
    2.4654   16.6360   25.8604 C   0  0  0  0  0  0  0  0  0  0  0  0
    1.8327   15.6021   26.5608 C   0  0  0  0  0  0  0  0  0  0  0  0
    0.6848   15.8312   27.3332 C   0  0  0  0  0  0  0  0  0  0  0  0
    0.1001   14.7939   28.0593 C   0  0  0  0  0  0  0  0  0  0  0  0
    0.6616   13.5213   28.0324 C   0  0  0  0  0  0  0  0  0  0  0  0
    1.7914   13.2754   27.2554 C   0  0  0  0  0  0  0  0  0  0  0  0
    2.3767   14.3044   26.5030 C   0  0  0  0  0  0  0  0  0  0  0  0
    3.4986   14.0706   25.6957 C   0  0  0  0  0  0  0  0  0  0  0  0
  1  2  1  0
  2  3  2  0
  3  4  1  0
  4  5  1  0
  4  6  1  0
  6  7  1  0
  6  8  2  0
  8  9  1  0
  9 10  1  0
 10 11  2  0
 10 12  1  0
 12 13  1  0
 13 14  1  1
 14 15  1  0
 15 16  1  0
 16 17  2  0
 16 18  1  0
 18 19  1  1
 18 20  1  0
 20 21  1  0
 21 22  1  0
 21 23  1  0
 13 24  1  0
 24 25  2  0
 25 26  1  0
 26 27  2  0
 27 28  1  0
 28 29  2  0
 29 30  1  0
 30 31  2  0
 31 32  1  0
 32 33  2  0
  8  2  1  0
 33 24  1  0
 32 27  1  0
M  END
>  <alias>  (91) 
None

>  <rmsd(smina/fragmenstein)>  (91) 
0.345

>  <smiles>  (91) 
Cc1nn(C)c(C)c1CC(=O)N[C@H](CNC(=O)[C@@H](Cl)CC(C)C)c1ccc2ccccc2c1

>  <gnina_score>  (91) 
6.552

>  <inspiration_score>  (91) 
None

>  <energy_score>  (91) 
-9.78089

>  <distance_score>  (91) 
0.427169

>  <gnina_score_min>  (91) 
6.512

>  <inchikey>  (91) 
BRFZVEHIFFQHFV-BJKOFHAPSA-N

>  <exports>  (91) 
['/opt/xchem-fragalysis-2/maxwin/BulkDock/OUTPUTS/openbind_a71ev2a_c2_elabs_1LOUU54.sdf', '/opt/xchem-fragalysis-2/maxwin/BulkDock/OUTPUTS/openbind_a71ev2a_c2_elabs_1LSYIDY.sdf']

>  <name>  (91) 
P564681

>  <ref_pdb>  (91) 
A1346a

>  <subsites>  (91) 
None

>  <HIPPO Pose ID>  (91) 
564681

>  <ref_mols>  (91) 
A1346a

>  <HIPPO Compound ID>  (91) 
406327

>  <tags>  (91) 
openbind_a71ev2a_c2_elabs,syndirella_product,openbind_a71ev2a_c2_elabs_scored,BulkDock Fragalysis export,openbind_a71ev2a_c2_elabs_scored_top80percent,openbind_a71ev2a_c2_elabs_scored_6plus,openbind_a71ev2a_c2_elabs_scored_top80percent_despaghettified,syndirella_placed

>  <smina_score_min>  (91) 
-7.242

$$$$
P564682
     RDKit          3D

 34 36  0  0  0  0  0  0  0  0999 V2000
    6.2069   10.5833   26.9578 C   0  0  0  0  0  0  0  0  0  0  0  0
    7.3130   10.7256   25.9795 C   0  0  0  0  0  0  0  0  0  0  0  0
    7.6488    9.6887   25.2091 N   0  0  0  0  0  0  0  0  0  0  0  0
    8.6428   10.1492   24.4256 N   0  0  0  0  0  0  0  0  0  0  0  0
    9.2381    9.2838   23.4312 C   0  0  0  0  0  0  0  0  0  0  0  0
    8.9745   11.4477   24.7061 C   0  0  0  0  0  0  0  0  0  0  0  0
   10.0385   12.1816   23.9925 C   0  0  0  0  0  0  0  0  0  0  0  0
    8.1354   11.8556   25.7265 C   0  0  0  0  0  0  0  0  0  0  0  0
    8.1280   13.1754   26.4185 C   0  0  0  0  0  0  0  0  0  0  0  0
    7.4955   14.3849   25.7288 C   0  0  0  0  0  0  0  0  0  0  0  0
    7.7590   15.4552   26.1143 O   0  0  0  0  0  0  0  0  0  0  0  0
    6.4930   13.9300   24.6487 N   0  0  0  0  0  0  0  0  0  0  0  0
    5.5340   14.6873   23.8812 C   0  0  2  0  0  0  0  0  0  0  0  0
    6.1013   15.9032   23.1365 C   0  0  0  0  0  0  0  0  0  0  0  0
    7.3810   15.8883   22.4751 N   0  0  0  0  0  0  0  0  0  0  0  0
    8.1173   14.7453   21.7343 C   0  0  0  0  0  0  0  0  0  0  0  0
    7.8355   13.6188   21.6121 O   0  0  0  0  0  0  0  0  0  0  0  0
    9.5149   15.3509   21.1910 C   0  0  2  0  0  0  0  0  0  0  0  0
   10.6194   14.9953   22.1894 C   0  0  0  0  0  0  0  0  0  0  0  0
    9.3489   17.1205   20.9833 Cl  0  0  0  0  0  0  0  0  0  0  0  0
    9.9158   14.7561   19.8606 C   0  0  0  0  0  0  0  0  0  0  0  0
   11.2689   15.0010   19.2464 C   0  0  0  0  0  0  0  0  0  0  0  0
    9.8352   13.4226   20.0098 F   0  0  0  0  0  0  0  0  0  0  0  0
    9.0213   15.1160   18.9208 F   0  0  0  0  0  0  0  0  0  0  0  0
    4.3267   15.0101   24.7866 C   0  0  0  0  0  0  0  0  0  0  0  0
    3.7471   16.2813   24.8857 C   0  0  0  0  0  0  0  0  0  0  0  0
    2.6020   16.5090   25.6583 C   0  0  0  0  0  0  0  0  0  0  0  0
    2.0225   15.4763   26.4017 C   0  0  0  0  0  0  0  0  0  0  0  0
    0.8664   15.6851   27.1701 C   0  0  0  0  0  0  0  0  0  0  0  0
    0.3262   14.6515   27.9339 C   0  0  0  0  0  0  0  0  0  0  0  0
    0.9458   13.4062   27.9549 C   0  0  0  0  0  0  0  0  0  0  0  0
    2.0910   13.1849   27.1905 C   0  0  0  0  0  0  0  0  0  0  0  0
    2.6290   14.2046   26.3883 C   0  0  0  0  0  0  0  0  0  0  0  0
    3.7560   13.9901   25.5716 C   0  0  0  0  0  0  0  0  0  0  0  0
  1  2  1  0
  2  3  2  0
  3  4  1  0
  4  5  1  0
  4  6  1  0
  6  7  1  0
  6  8  2  0
  8  9  1  0
  9 10  1  0
 10 11  2  0
 10 12  1  0
 12 13  1  0
 13 14  1  1
 14 15  1  0
 15 16  1  0
 16 17  2  0
 16 18  1  0
 18 19  1  1
 18 20  1  0
 18 21  1  0
 21 22  1  0
 21 23  1  0
 21 24  1  0
 13 25  1  0
 25 26  2  0
 26 27  1  0
 27 28  2  0
 28 29  1  0
 29 30  2  0
 30 31  1  0
 31 32  2  0
 32 33  1  0
 33 34  2  0
  8  2  1  0
 34 25  1  0
 33 28  1  0
M  END
>  <alias>  (92) 
None

>  <rmsd(smina/fragmenstein)>  (92) 
0.7

>  <smiles>  (92) 
Cc1nn(C)c(C)c1CC(=O)N[C@H](CNC(=O)[C@](C)(Cl)C(C)(F)F)c1ccc2ccccc2c1

>  <gnina_score>  (92) 
6.406

>  <inspiration_score>  (92) 
None

>  <energy_score>  (92) 
-11.809768

>  <distance_score>  (92) 
0.376638

>  <gnina_score_min>  (92) 
6.455

>  <inchikey>  (92) 
JWQYPWLGLWAYLY-QPPBQGQZSA-N

>  <exports>  (92) 
['/opt/xchem-fragalysis-2/maxwin/BulkDock/OUTPUTS/openbind_a71ev2a_c2_elabs_1LOUU54.sdf', '/opt/xchem-fragalysis-2/maxwin/BulkDock/OUTPUTS/openbind_a71ev2a_c2_elabs_1LSYIDY.sdf']

>  <name>  (92) 
P564682

>  <ref_pdb>  (92) 
A1346a

>  <subsites>  (92) 
None

>  <HIPPO Pose ID>  (92) 
564682

>  <ref_mols>  (92) 
A1346a

>  <HIPPO Compound ID>  (92) 
406328

>  <tags>  (92) 
openbind_a71ev2a_c2_elabs,syndirella_product,openbind_a71ev2a_c2_elabs_scored,BulkDock Fragalysis export,openbind_a71ev2a_c2_elabs_scored_top80percent,openbind_a71ev2a_c2_elabs_scored_6plus,openbind_a71ev2a_c2_elabs_scored_top80percent_despaghettified,syndirella_placed

>  <smina_score_min>  (92) 
-7.141

$$$$
P564685
     RDKit          3D

 34 37  0  0  0  0  0  0  0  0999 V2000
   11.6777   14.8579   18.5340 C   0  0  0  0  0  0  0  0  0  0  0  0
   10.4672   15.5089   19.1171 C   0  0  0  0  0  0  0  0  0  0  0  0
    9.9029   16.4804   18.6383 O   0  0  0  0  0  0  0  0  0  0  0  0
    9.9477   14.8172   20.3112 C   0  0  1  0  0  0  0  0  0  0  0  0
   10.4723   15.1197   21.6800 C   0  0  0  0  0  0  0  0  0  0  0  0
    9.0445   15.4996   21.3128 C   0  0  1  0  0  0  0  0  0  0  0  0
    8.8308   17.2685   21.1885 Cl  0  0  0  0  0  0  0  0  0  0  0  0
    7.8891   14.6702   21.8810 C   0  0  0  0  0  0  0  0  0  0  0  0
    8.0536   13.5273   22.0152 O   0  0  0  0  0  0  0  0  0  0  0  0
    6.6869   15.5447   22.2287 N   0  0  0  0  0  0  0  0  0  0  0  0
    5.4566   15.2200   22.9065 C   0  0  0  0  0  0  0  0  0  0  0  0
    5.6007   15.3199   24.4337 C   0  0  2  0  0  0  0  0  0  0  0  0
    6.4819   14.3361   25.0294 N   0  0  0  0  0  0  0  0  0  0  0  0
    7.6062   14.4993   26.0680 C   0  0  0  0  0  0  0  0  0  0  0  0
    8.0547   15.4622   26.5532 O   0  0  0  0  0  0  0  0  0  0  0  0
    8.1022   13.1588   26.5738 C   0  0  0  0  0  0  0  0  0  0  0  0
    8.0565   11.9268   25.7453 C   0  0  0  0  0  0  0  0  0  0  0  0
    7.2301   10.7877   25.9411 C   0  0  0  0  0  0  0  0  0  0  0  0
    6.1343   10.5949   26.9224 C   0  0  0  0  0  0  0  0  0  0  0  0
    7.5865    9.7771   25.1471 N   0  0  0  0  0  0  0  0  0  0  0  0
    8.5960   10.2657   24.4031 N   0  0  0  0  0  0  0  0  0  0  0  0
    9.2512    9.4066   23.4426 C   0  0  0  0  0  0  0  0  0  0  0  0
    8.9171   11.5585   24.7249 C   0  0  0  0  0  0  0  0  0  0  0  0
   10.0205   12.3062   24.0791 C   0  0  0  0  0  0  0  0  0  0  0  0
    4.2608   15.3665   25.1472 C   0  0  0  0  0  0  0  0  0  0  0  0
    3.5618   16.5800   25.1981 C   0  0  0  0  0  0  0  0  0  0  0  0
    2.3352   16.6774   25.8541 C   0  0  0  0  0  0  0  0  0  0  0  0
    1.7994   15.5711   26.5230 C   0  0  0  0  0  0  0  0  0  0  0  0
    0.5898   15.6633   27.2255 C   0  0  0  0  0  0  0  0  0  0  0  0
    0.0973   14.5681   27.9331 C   0  0  0  0  0  0  0  0  0  0  0  0
    0.8069   13.3708   27.9491 C   0  0  0  0  0  0  0  0  0  0  0  0
    1.9994   13.2576   27.2372 C   0  0  0  0  0  0  0  0  0  0  0  0
    2.5040   14.3470   26.5111 C   0  0  0  0  0  0  0  0  0  0  0  0
    3.7062   14.2510   25.7922 C   0  0  0  0  0  0  0  0  0  0  0  0
  1  2  1  0
  2  3  2  0
  4  2  1  6
  4  5  1  0
  5  6  1  0
  6  7  1  6
  6  8  1  0
  8  9  2  0
  8 10  1  0
 10 11  1  0
 12 11  1  6
 12 13  1  0
 13 14  1  0
 14 15  2  0
 14 16  1  0
 16 17  1  0
 17 18  1  0
 18 19  1  0
 18 20  2  0
 20 21  1  0
 21 22  1  0
 21 23  1  0
 23 24  1  0
 12 25  1  0
 25 26  2  0
 26 27  1  0
 27 28  2  0
 28 29  1  0
 29 30  2  0
 30 31  1  0
 31 32  2  0
 32 33  1  0
 33 34  2  0
  6  4  1  0
 23 17  2  0
 34 25  1  0
 33 28  1  0
M  END
>  <alias>  (93) 
None

>  <rmsd(smina/fragmenstein)>  (93) 
0.503

>  <smiles>  (93) 
CC(=O)[C@H]1C[C@]1(Cl)C(=O)NC[C@H](NC(=O)Cc1c(C)nn(C)c1C)c1ccc2ccccc2c1

>  <gnina_score>  (93) 
6.414

>  <inspiration_score>  (93) 
None

>  <energy_score>  (93) 
-13.145712

>  <distance_score>  (93) 
0.332704

>  <gnina_score_min>  (93) 
6.536

>  <inchikey>  (93) 
IPCGSPWUHYDDIL-MVERNJQCSA-N

>  <exports>  (93) 
['/opt/xchem-fragalysis-2/maxwin/BulkDock/OUTPUTS/openbind_a71ev2a_c2_elabs_1LOUU54.sdf', '/opt/xchem-fragalysis-2/maxwin/BulkDock/OUTPUTS/openbind_a71ev2a_c2_elabs_1LSYIDY.sdf']

>  <name>  (93) 
P564685

>  <ref_pdb>  (93) 
A1346a

>  <subsites>  (93) 
None

>  <HIPPO Pose ID>  (93) 
564685

>  <ref_mols>  (93) 
A1346a

>  <HIPPO Compound ID>  (93) 
406329

>  <tags>  (93) 
openbind_a71ev2a_c2_elabs,syndirella_product,openbind_a71ev2a_c2_elabs_scored,BulkDock Fragalysis export,openbind_a71ev2a_c2_elabs_scored_top80percent,openbind_a71ev2a_c2_elabs_scored_6plus,openbind_a71ev2a_c2_elabs_scored_top80percent_despaghettified,syndirella_placed

>  <smina_score_min>  (93) 
-7.512

$$$$
P564697
     RDKit          3D

 34 37  0  0  0  0  0  0  0  0999 V2000
    6.2611   10.6440   26.9363 C   0  0  0  0  0  0  0  0  0  0  0  0
    7.3146   10.8203   25.9065 C   0  0  0  0  0  0  0  0  0  0  0  0
    7.6264    9.8002   25.1055 N   0  0  0  0  0  0  0  0  0  0  0  0
    8.6063   10.2751   24.3102 N   0  0  0  0  0  0  0  0  0  0  0  0
    9.2499    9.3862   23.3683 C   0  0  0  0  0  0  0  0  0  0  0  0
    8.9107   11.5868   24.5684 C   0  0  0  0  0  0  0  0  0  0  0  0
    9.9367   12.3528   23.8188 C   0  0  0  0  0  0  0  0  0  0  0  0
    8.1418   11.9486   25.6616 C   0  0  0  0  0  0  0  0  0  0  0  0
    8.2765   13.1733   26.4905 C   0  0  0  0  0  0  0  0  0  0  0  0
    7.7432   14.5228   26.0567 C   0  0  0  0  0  0  0  0  0  0  0  0
    8.1386   15.4660   26.6202 O   0  0  0  0  0  0  0  0  0  0  0  0
    6.6629   14.3905   24.9689 N   0  0  0  0  0  0  0  0  0  0  0  0
    5.7695   15.3781   24.4080 C   0  0  1  0  0  0  0  0  0  0  0  0
    5.6451   15.3319   22.8762 C   0  0  0  0  0  0  0  0  0  0  0  0
    6.7994   15.8584   22.1770 N   0  0  0  0  0  0  0  0  0  0  0  0
    7.9884   15.1383   21.5370 C   0  0  0  0  0  0  0  0  0  0  0  0
    8.1964   14.0028   21.3998 O   0  0  0  0  0  0  0  0  0  0  0  0
    9.0069   16.1327   20.9654 C   0  0  1  0  0  0  0  0  0  0  0  0
    8.5270   17.7099   20.3115 Cl  0  0  0  0  0  0  0  0  0  0  0  0
   10.2222   16.2401   21.6847 O   0  0  0  0  0  0  0  0  0  0  0  0
   10.3341   15.6601   20.3868 C   0  0  1  0  0  0  0  0  0  0  0  0
   11.0200   14.3455   20.4803 C   0  0  0  0  0  0  0  0  0  0  0  0
   11.9843   14.2505   21.6675 C   0  0  0  0  0  0  0  0  0  0  0  0
   11.7795   14.0944   19.1882 C   0  0  0  0  0  0  0  0  0  0  0  0
    4.4191   15.3761   25.1097 C   0  0  0  0  0  0  0  0  0  0  0  0
    3.6727   16.5626   25.1446 C   0  0  0  0  0  0  0  0  0  0  0  0
    2.4353   16.6219   25.7862 C   0  0  0  0  0  0  0  0  0  0  0  0
    1.9318   15.5030   26.4576 C   0  0  0  0  0  0  0  0  0  0  0  0
    0.7088   15.5577   27.1416 C   0  0  0  0  0  0  0  0  0  0  0  0
    0.2450   14.4513   27.8506 C   0  0  0  0  0  0  0  0  0  0  0  0
    0.9977   13.2811   27.8880 C   0  0  0  0  0  0  0  0  0  0  0  0
    2.2075   13.2077   27.1991 C   0  0  0  0  0  0  0  0  0  0  0  0
    2.6834   14.3066   26.4670 C   0  0  0  0  0  0  0  0  0  0  0  0
    3.8998   14.2486   25.7631 C   0  0  0  0  0  0  0  0  0  0  0  0
  1  2  1  0
  2  3  2  0
  3  4  1  0
  4  5  1  0
  4  6  1  0
  6  7  1  0
  6  8  2  0
  8  9  1  0
  9 10  1  0
 10 11  2  0
 10 12  1  0
 12 13  1  0
 13 14  1  6
 14 15  1  0
 15 16  1  0
 16 17  2  0
 16 18  1  0
 18 19  1  6
 18 20  1  0
 20 21  1  0
 21 22  1  1
 22 23  1  0
 22 24  1  0
 13 25  1  0
 25 26  2  0
 26 27  1  0
 27 28  2  0
 28 29  1  0
 29 30  2  0
 30 31  1  0
 31 32  2  0
 32 33  1  0
 33 34  2  0
  8  2  1  0
 21 18  1  0
 34 25  1  0
 33 28  1  0
M  END
>  <alias>  (94) 
None

>  <rmsd(smina/fragmenstein)>  (94) 
0.469

>  <smiles>  (94) 
Cc1nn(C)c(C)c1CC(=O)N[C@@H](CNC(=O)[C@@]1(Cl)O[C@H]1C(C)C)c1ccc2ccccc2c1

>  <gnina_score>  (94) 
6.203

>  <inspiration_score>  (94) 
None

>  <energy_score>  (94) 
-21.535001

>  <distance_score>  (94) 
0.458992

>  <gnina_score_min>  (94) 
6.199

>  <inchikey>  (94) 
LGAFHIFUZVZFBS-GVUKDKGQSA-N

>  <exports>  (94) 
['/opt/xchem-fragalysis-2/maxwin/BulkDock/OUTPUTS/openbind_a71ev2a_c2_elabs_1LOUU54.sdf', '/opt/xchem-fragalysis-2/maxwin/BulkDock/OUTPUTS/openbind_a71ev2a_c2_elabs_1LSYIDY.sdf']

>  <name>  (94) 
P564697

>  <ref_pdb>  (94) 
A1346a

>  <subsites>  (94) 
None

>  <HIPPO Pose ID>  (94) 
564697

>  <ref_mols>  (94) 
A1346a

>  <HIPPO Compound ID>  (94) 
406330

>  <tags>  (94) 
openbind_a71ev2a_c2_elabs,syndirella_product,openbind_a71ev2a_c2_elabs_scored,BulkDock Fragalysis export,openbind_a71ev2a_c2_elabs_scored_top80percent,openbind_a71ev2a_c2_elabs_scored_6plus,openbind_a71ev2a_c2_elabs_scored_top80percent_despaghettified,syndirella_placed

>  <smina_score_min>  (94) 
-6.995

$$$$
P564698
     RDKit          3D

 34 37  0  0  0  0  0  0  0  0999 V2000
    6.0552   10.4374   27.0159 C   0  0  0  0  0  0  0  0  0  0  0  0
    7.1889   10.6390   26.0812 C   0  0  0  0  0  0  0  0  0  0  0  0
    7.5779    9.6410   25.2836 N   0  0  0  0  0  0  0  0  0  0  0  0
    8.5825   10.1572   24.5541 N   0  0  0  0  0  0  0  0  0  0  0  0
    9.2198    9.3591   23.5301 C   0  0  0  0  0  0  0  0  0  0  0  0
    8.8693   11.4498   24.8976 C   0  0  0  0  0  0  0  0  0  0  0  0
    9.9073   12.2472   24.2259 C   0  0  0  0  0  0  0  0  0  0  0  0
    7.9810   11.8017   25.8931 C   0  0  0  0  0  0  0  0  0  0  0  0
    7.8892   13.1051   26.6066 C   0  0  0  0  0  0  0  0  0  0  0  0
    7.3944   14.3245   25.8318 C   0  0  0  0  0  0  0  0  0  0  0  0
    7.7763   15.3897   26.1210 O   0  0  0  0  0  0  0  0  0  0  0  0
    6.3325   13.8882   24.7994 N   0  0  0  0  0  0  0  0  0  0  0  0
    5.4486   14.6757   23.9731 C   0  0  2  0  0  0  0  0  0  0  0  0
    6.0870   15.8968   23.3110 C   0  0  0  0  0  0  0  0  0  0  0  0
    7.3352   15.8526   22.5989 N   0  0  0  0  0  0  0  0  0  0  0  0
    8.0221   14.6897   21.8466 C   0  0  0  0  0  0  0  0  0  0  0  0
    7.7190   13.5649   21.7525 O   0  0  0  0  0  0  0  0  0  0  0  0
    9.3986   15.2717   21.2415 C   0  0  0  0  0  0  0  0  0  0  0  0
    9.1992   17.0320   20.8942 Cl  0  0  0  0  0  0  0  0  0  0  0  0
   10.5661   15.0687   22.2219 C   0  0  0  0  0  0  0  0  0  0  0  0
   11.5300   13.9493   21.8681 C   0  0  0  0  0  0  0  0  0  0  0  0
   12.1587   14.1933   20.5106 C   0  0  0  0  0  0  0  0  0  0  0  0
   11.1760   14.6795   19.4558 C   0  0  0  0  0  0  0  0  0  0  0  0
    9.7371   14.6095   19.9287 C   0  0  0  0  0  0  0  0  0  0  0  0
    4.2173   15.0246   24.8375 C   0  0  0  0  0  0  0  0  0  0  0  0
    3.6719   16.3105   24.9377 C   0  0  0  0  0  0  0  0  0  0  0  0
    2.5267   16.5622   25.7024 C   0  0  0  0  0  0  0  0  0  0  0  0
    1.9166   15.5402   26.4375 C   0  0  0  0  0  0  0  0  0  0  0  0
    0.7691   15.7748   27.2104 C   0  0  0  0  0  0  0  0  0  0  0  0
    0.2039   14.7510   27.9698 C   0  0  0  0  0  0  0  0  0  0  0  0
    0.7868   13.4880   27.9784 C   0  0  0  0  0  0  0  0  0  0  0  0
    1.9194   13.2387   27.2053 C   0  0  0  0  0  0  0  0  0  0  0  0
    2.4843   14.2515   26.4143 C   0  0  0  0  0  0  0  0  0  0  0  0
    3.6072   14.0128   25.6033 C   0  0  0  0  0  0  0  0  0  0  0  0
  1  2  1  0
  2  3  2  0
  3  4  1  0
  4  5  1  0
  4  6  1  0
  6  7  1  0
  6  8  2  0
  8  9  1  0
  9 10  1  0
 10 11  2  0
 10 12  1  0
 12 13  1  0
 13 14  1  1
 14 15  1  0
 15 16  1  0
 16 17  2  0
 16 18  1  0
 18 19  1  0
 18 20  1  0
 20 21  1  0
 21 22  1  0
 22 23  1  0
 23 24  1  0
 13 25  1  0
 25 26  2  0
 26 27  1  0
 27 28  2  0
 28 29  1  0
 29 30  2  0
 30 31  1  0
 31 32  2  0
 32 33  1  0
 33 34  2  0
  8  2  1  0
 24 18  1  0
 34 25  1  0
 33 28  1  0
M  END
>  <alias>  (95) 
None

>  <rmsd(smina/fragmenstein)>  (95) 
0.313

>  <smiles>  (95) 
Cc1nn(C)c(C)c1CC(=O)N[C@H](CNC(=O)C1(Cl)CCCCC1)c1ccc2ccccc2c1

>  <gnina_score>  (95) 
6.715

>  <inspiration_score>  (95) 
None

>  <energy_score>  (95) 
-2.675828

>  <distance_score>  (95) 
0.382919

>  <gnina_score_min>  (95) 
6.606

>  <inchikey>  (95) 
HYXHVNCJJBLDHZ-XMMPIXPASA-N

>  <exports>  (95) 
['/opt/xchem-fragalysis-2/maxwin/BulkDock/OUTPUTS/openbind_a71ev2a_c2_elabs_1LOUU54.sdf', '/opt/xchem-fragalysis-2/maxwin/BulkDock/OUTPUTS/openbind_a71ev2a_c2_elabs_1LSYIDY.sdf']

>  <name>  (95) 
P564698

>  <ref_pdb>  (95) 
A1346a

>  <subsites>  (95) 
None

>  <HIPPO Pose ID>  (95) 
564698

>  <ref_mols>  (95) 
A1346a

>  <HIPPO Compound ID>  (95) 
406331

>  <tags>  (95) 
openbind_a71ev2a_c2_elabs,syndirella_product,openbind_a71ev2a_c2_elabs_scored,BulkDock Fragalysis export,openbind_a71ev2a_c2_elabs_scored_top80percent,openbind_a71ev2a_c2_elabs_scored_6plus,openbind_a71ev2a_c2_elabs_scored_top80percent_despaghettified,syndirella_placed

>  <smina_score_min>  (95) 
-7.514

$$$$
P564700
     RDKit          3D

 34 38  0  0  0  0  0  0  0  0999 V2000
    6.2562   10.6675   26.9197 C   0  0  0  0  0  0  0  0  0  0  0  0
    7.3217   10.8439   25.9025 C   0  0  0  0  0  0  0  0  0  0  0  0
    7.6258    9.8304   25.0916 N   0  0  0  0  0  0  0  0  0  0  0  0
    8.6288   10.2956   24.3204 N   0  0  0  0  0  0  0  0  0  0  0  0
    9.2655    9.4068   23.3741 C   0  0  0  0  0  0  0  0  0  0  0  0
    8.9627   11.5949   24.6070 C   0  0  0  0  0  0  0  0  0  0  0  0
   10.0350   12.3412   23.8982 C   0  0  0  0  0  0  0  0  0  0  0  0
    8.1670   11.9636   25.6798 C   0  0  0  0  0  0  0  0  0  0  0  0
    8.2896   13.1859   26.5141 C   0  0  0  0  0  0  0  0  0  0  0  0
    7.7208   14.5249   26.0924 C   0  0  0  0  0  0  0  0  0  0  0  0
    8.1101   15.4757   26.6477 O   0  0  0  0  0  0  0  0  0  0  0  0
    6.6349   14.3748   25.0125 N   0  0  0  0  0  0  0  0  0  0  0  0
    5.7271   15.3503   24.4511 C   0  0  1  0  0  0  0  0  0  0  0  0
    5.6386   15.3123   22.9156 C   0  0  0  0  0  0  0  0  0  0  0  0
    6.8610   15.7704   22.2939 N   0  0  0  0  0  0  0  0  0  0  0  0
    8.0525   14.9843   21.7464 C   0  0  0  0  0  0  0  0  0  0  0  0
    8.2805   13.8450   21.7746 O   0  0  0  0  0  0  0  0  0  0  0  0
    9.0905   15.9246   21.1383 C   0  0  1  0  0  0  0  0  0  0  0  0
    8.6109   17.5828   20.6624 Cl  0  0  0  0  0  0  0  0  0  0  0  0
   10.4973   15.9536   21.6668 C   0  0  0  0  0  0  0  0  0  0  0  0
   10.2371   15.3924   20.3261 C   0  0  0  0  0  0  0  0  0  0  0  0
   10.7595   14.0518   20.0859 C   0  0  0  0  0  0  0  0  0  0  0  0
   11.4023   14.6171   18.8312 C   0  0  0  0  0  0  0  0  0  0  0  0
   10.4596   15.8157   18.9295 C   0  0  0  0  0  0  0  0  0  0  0  0
    4.3724   15.3417   25.1365 C   0  0  0  0  0  0  0  0  0  0  0  0
    3.6224   16.5266   25.1602 C   0  0  0  0  0  0  0  0  0  0  0  0
    2.3849   16.5869   25.8000 C   0  0  0  0  0  0  0  0  0  0  0  0
    1.8864   15.4715   26.4807 C   0  0  0  0  0  0  0  0  0  0  0  0
    0.6657   15.5288   27.1678 C   0  0  0  0  0  0  0  0  0  0  0  0
    0.2076   14.4271   27.8879 C   0  0  0  0  0  0  0  0  0  0  0  0
    0.9628   13.2586   27.9319 C   0  0  0  0  0  0  0  0  0  0  0  0
    2.1702   13.1820   27.2392 C   0  0  0  0  0  0  0  0  0  0  0  0
    2.6413   14.2768   26.4983 C   0  0  0  0  0  0  0  0  0  0  0  0
    3.8574   14.2169   25.7956 C   0  0  0  0  0  0  0  0  0  0  0  0
  1  2  1  0
  2  3  2  0
  3  4  1  0
  4  5  1  0
  4  6  1  0
  6  7  1  0
  6  8  2  0
  8  9  1  0
  9 10  1  0
 10 11  2  0
 10 12  1  0
 12 13  1  0
 13 14  1  6
 14 15  1  0
 15 16  1  0
 16 17  2  0
 16 18  1  0
 18 19  1  6
 18 20  1  0
 20 21  1  0
 21 22  1  0
 22 23  1  0
 23 24  1  0
 13 25  1  0
 25 26  2  0
 26 27  1  0
 27 28  2  0
 28 29  1  0
 29 30  2  0
 30 31  1  0
 31 32  2  0
 32 33  1  0
 33 34  2  0
  8  2  1  0
 21 18  1  0
 34 25  1  0
 24 21  1  0
 33 28  1  0
M  END
>  <alias>  (96) 
None

>  <rmsd(smina/fragmenstein)>  (96) 
0.387

>  <smiles>  (96) 
Cc1nn(C)c(C)c1CC(=O)N[C@@H](CNC(=O)[C@@]1(Cl)CC12CCC2)c1ccc2ccccc2c1

>  <gnina_score>  (96) 
6.293

>  <inspiration_score>  (96) 
None

>  <energy_score>  (96) 
-10.510101

>  <distance_score>  (96) 
0.410473

>  <gnina_score_min>  (96) 
6.347

>  <inchikey>  (96) 
LWKKHMNYEOUBHO-HOFKKMOUSA-N

>  <exports>  (96) 
['/opt/xchem-fragalysis-2/maxwin/BulkDock/OUTPUTS/openbind_a71ev2a_c2_elabs_1LOUU54.sdf', '/opt/xchem-fragalysis-2/maxwin/BulkDock/OUTPUTS/openbind_a71ev2a_c2_elabs_1LSYIDY.sdf']

>  <name>  (96) 
P564700

>  <ref_pdb>  (96) 
A1346a

>  <subsites>  (96) 
None

>  <HIPPO Pose ID>  (96) 
564700

>  <ref_mols>  (96) 
A1346a

>  <HIPPO Compound ID>  (96) 
406332

>  <tags>  (96) 
openbind_a71ev2a_c2_elabs,syndirella_product,openbind_a71ev2a_c2_elabs_scored,BulkDock Fragalysis export,openbind_a71ev2a_c2_elabs_scored_top80percent,openbind_a71ev2a_c2_elabs_scored_6plus,openbind_a71ev2a_c2_elabs_scored_top80percent_despaghettified,syndirella_placed

>  <smina_score_min>  (96) 
-6.841

$$$$
P564701
     RDKit          3D

 35 38  0  0  0  0  0  0  0  0999 V2000
    6.2005   10.5870   26.9314 C   0  0  0  0  0  0  0  0  0  0  0  0
    7.2588   10.7886   25.9110 C   0  0  0  0  0  0  0  0  0  0  0  0
    7.6006    9.7789   25.1108 N   0  0  0  0  0  0  0  0  0  0  0  0
    8.5776   10.2752   24.3276 N   0  0  0  0  0  0  0  0  0  0  0  0
    9.2413    9.4052   23.3812 C   0  0  0  0  0  0  0  0  0  0  0  0
    8.8569   11.5911   24.5969 C   0  0  0  0  0  0  0  0  0  0  0  0
    9.8809   12.3690   23.8591 C   0  0  0  0  0  0  0  0  0  0  0  0
    8.0605   11.9371   25.6754 C   0  0  0  0  0  0  0  0  0  0  0  0
    8.1390   13.1593   26.5128 C   0  0  0  0  0  0  0  0  0  0  0  0
    7.6645   14.5097   26.0187 C   0  0  0  0  0  0  0  0  0  0  0  0
    8.1619   15.4625   26.4742 O   0  0  0  0  0  0  0  0  0  0  0  0
    6.4920   14.3714   25.0319 N   0  0  0  0  0  0  0  0  0  0  0  0
    5.6167   15.3742   24.4664 C   0  0  1  0  0  0  0  0  0  0  0  0
    5.4952   15.3467   22.9348 C   0  0  0  0  0  0  0  0  0  0  0  0
    6.6509   15.8942   22.2581 N   0  0  0  0  0  0  0  0  0  0  0  0
    7.7290   15.2032   21.3971 C   0  0  0  0  0  0  0  0  0  0  0  0
    7.8125   14.0966   21.0343 O   0  0  0  0  0  0  0  0  0  0  0  0
    8.8741   16.2365   21.1211 C   0  0  2  0  0  0  0  0  0  0  0  0
    8.5630   17.6498   20.1229 Cl  0  0  0  0  0  0  0  0  0  0  0  0
   10.1160   15.5179   20.6988 C   0  0  0  0  0  0  0  0  0  0  0  0
   10.4274   15.3214   19.3505 C   0  0  0  0  0  0  0  0  0  0  0  0
   11.5439   14.5908   19.0054 C   0  0  0  0  0  0  0  0  0  0  0  0
   12.3276   14.0472   20.0092 C   0  0  0  0  0  0  0  0  0  0  0  0
   12.0328   14.2249   21.3526 C   0  0  0  0  0  0  0  0  0  0  0  0
   10.9251   14.9611   21.6961 C   0  0  0  0  0  0  0  0  0  0  0  0
    4.2676   15.3875   25.1651 C   0  0  0  0  0  0  0  0  0  0  0  0
    3.5420   16.5863   25.2096 C   0  0  0  0  0  0  0  0  0  0  0  0
    2.3098   16.6590   25.8579 C   0  0  0  0  0  0  0  0  0  0  0  0
    1.7952   15.5434   26.5271 C   0  0  0  0  0  0  0  0  0  0  0  0
    0.5814   15.6129   27.2246 C   0  0  0  0  0  0  0  0  0  0  0  0
    0.1100   14.5105   27.9351 C   0  0  0  0  0  0  0  0  0  0  0  0
    0.8443   13.3283   27.9581 C   0  0  0  0  0  0  0  0  0  0  0  0
    2.0420   13.2376   27.2515 C   0  0  0  0  0  0  0  0  0  0  0  0
    2.5264   14.3345   26.5228 C   0  0  0  0  0  0  0  0  0  0  0  0
    3.7347   14.2621   25.8109 C   0  0  0  0  0  0  0  0  0  0  0  0
  1  2  1  0
  2  3  2  0
  3  4  1  0
  4  5  1  0
  4  6  1  0
  6  7  1  0
  6  8  2  0
  8  9  1  0
  9 10  1  0
 10 11  2  0
 10 12  1  0
 12 13  1  0
 13 14  1  6
 14 15  1  0
 15 16  1  0
 16 17  2  0
 16 18  1  0
 18 19  1  6
 18 20  1  0
 20 21  2  0
 21 22  1  0
 22 23  2  0
 23 24  1  0
 24 25  2  0
 13 26  1  0
 26 27  2  0
 27 28  1  0
 28 29  2  0
 29 30  1  0
 30 31  2  0
 31 32  1  0
 32 33  2  0
 33 34  1  0
 34 35  2  0
  8  2  1  0
 25 20  1  0
 35 26  1  0
 34 29  1  0
M  END
>  <alias>  (97) 
None

>  <rmsd(smina/fragmenstein)>  (97) 
0.689

>  <smiles>  (97) 
Cc1nn(C)c(C)c1CC(=O)N[C@@H](CNC(=O)[C@H](Cl)c1ccccc1)c1ccc2ccccc2c1

>  <gnina_score>  (97) 
6.242

>  <inspiration_score>  (97) 
None

>  <energy_score>  (97) 
-0.955176

>  <distance_score>  (97) 
0.471836

>  <gnina_score_min>  (97) 
6.262

>  <inchikey>  (97) 
WHJYYMRYWOVUSC-AHKZPQOWSA-N

>  <exports>  (97) 
['/opt/xchem-fragalysis-2/maxwin/BulkDock/OUTPUTS/openbind_a71ev2a_c2_elabs_1LOUU54.sdf', '/opt/xchem-fragalysis-2/maxwin/BulkDock/OUTPUTS/openbind_a71ev2a_c2_elabs_1LSYIDY.sdf']

>  <name>  (97) 
P564701

>  <ref_pdb>  (97) 
A1346a

>  <subsites>  (97) 
None

>  <HIPPO Pose ID>  (97) 
564701

>  <ref_mols>  (97) 
A1346a

>  <HIPPO Compound ID>  (97) 
406333

>  <tags>  (97) 
openbind_a71ev2a_c2_elabs,syndirella_product,openbind_a71ev2a_c2_elabs_scored,BulkDock Fragalysis export,openbind_a71ev2a_c2_elabs_scored_top80percent,openbind_a71ev2a_c2_elabs_scored_6plus,openbind_a71ev2a_c2_elabs_scored_top80percent_despaghettified,syndirella_placed

>  <smina_score_min>  (97) 
-7.292

$$$$
P564703
     RDKit          3D

 35 39  0  0  0  0  0  0  0  0999 V2000
    6.0721   10.5698   26.9403 C   0  0  0  0  0  0  0  0  0  0  0  0
    7.1786   10.7540   25.9698 C   0  0  0  0  0  0  0  0  0  0  0  0
    7.5223    9.7454   25.1671 N   0  0  0  0  0  0  0  0  0  0  0  0
    8.5545   10.2181   24.4459 N   0  0  0  0  0  0  0  0  0  0  0  0
    9.2024    9.3694   23.4699 C   0  0  0  0  0  0  0  0  0  0  0  0
    8.9089   11.4923   24.8028 C   0  0  0  0  0  0  0  0  0  0  0  0
   10.0603   12.1901   24.1957 C   0  0  0  0  0  0  0  0  0  0  0  0
    8.0316   11.8782   25.8005 C   0  0  0  0  0  0  0  0  0  0  0  0
    8.0957   13.0950   26.6484 C   0  0  0  0  0  0  0  0  0  0  0  0
    7.6793   14.4621   26.1545 C   0  0  0  0  0  0  0  0  0  0  0  0
    8.2189   15.3963   26.5997 O   0  0  0  0  0  0  0  0  0  0  0  0
    6.4966   14.3658   25.1791 N   0  0  0  0  0  0  0  0  0  0  0  0
    5.6584   15.4003   24.6131 C   0  0  1  0  0  0  0  0  0  0  0  0
    5.6464   15.4440   23.0820 C   0  0  0  0  0  0  0  0  0  0  0  0
    6.9521   15.6932   22.5148 N   0  0  0  0  0  0  0  0  0  0  0  0
    7.7115   14.9607   21.3962 C   0  0  0  0  0  0  0  0  0  0  0  0
    7.4387   13.9950   20.8075 O   0  0  0  0  0  0  0  0  0  0  0  0
    9.1113   15.6547   21.1573 C   0  0  2  0  0  0  0  0  0  0  0  0
    9.0108   17.3958   21.3122 Cl  0  0  0  0  0  0  0  0  0  0  0  0
    9.8169   15.3383   19.8409 C   0  0  0  0  0  0  0  0  0  0  0  0
   10.6676   14.1313   20.1992 C   0  0  1  0  0  0  0  0  0  0  0  0
   11.9766   14.4359   20.8713 C   0  0  0  0  0  0  0  0  0  0  0  0
   11.5049   15.1526   22.1252 C   0  0  0  0  0  0  0  0  0  0  0  0
   10.0044   14.8667   22.1215 C   0  0  2  0  0  0  0  0  0  0  0  0
   10.0156   13.6179   21.3772 O   0  0  0  0  0  0  0  0  0  0  0  0
    4.2726   15.4115   25.2336 C   0  0  0  0  0  0  0  0  0  0  0  0
    3.5444   16.6096   25.2362 C   0  0  0  0  0  0  0  0  0  0  0  0
    2.2922   16.6910   25.8448 C   0  0  0  0  0  0  0  0  0  0  0  0
    1.7571   15.5850   26.5144 C   0  0  0  0  0  0  0  0  0  0  0  0
    0.5289   15.6658   27.1845 C   0  0  0  0  0  0  0  0  0  0  0  0
    0.0392   14.5727   27.8972 C   0  0  0  0  0  0  0  0  0  0  0  0
    0.7670   13.3870   27.9456 C   0  0  0  0  0  0  0  0  0  0  0  0
    1.9772   13.2835   27.2634 C   0  0  0  0  0  0  0  0  0  0  0  0
    2.4828   14.3738   26.5398 C   0  0  0  0  0  0  0  0  0  0  0  0
    3.7110   14.2921   25.8659 C   0  0  0  0  0  0  0  0  0  0  0  0
  1  2  1  0
  2  3  2  0
  3  4  1  0
  4  5  1  0
  4  6  1  0
  6  7  1  0
  6  8  2  0
  8  9  1  0
  9 10  1  0
 10 11  2  0
 10 12  1  0
 12 13  1  0
 13 14  1  6
 14 15  1  0
 15 16  1  0
 16 17  2  0
 16 18  1  0
 18 19  1  1
 18 20  1  0
 21 20  1  1
 21 22  1  0
 22 23  1  0
 24 23  1  6
 24 25  1  0
 13 26  1  0
 26 27  2  0
 27 28  1  0
 28 29  2  0
 29 30  1  0
 30 31  2  0
 31 32  1  0
 32 33  2  0
 33 34  1  0
 34 35  2  0
  8  2  1  0
 24 18  1  0
 35 26  1  0
 25 21  1  0
 34 29  1  0
M  END
>  <alias>  (98) 
None

>  <rmsd(smina/fragmenstein)>  (98) 
0.552

>  <smiles>  (98) 
Cc1nn(C)c(C)c1CC(=O)N[C@@H](CNC(=O)[C@]1(Cl)C[C@H]2CC[C@@H]1O2)c1ccc2ccccc2c1

>  <gnina_score>  (98) 
6.48

>  <inspiration_score>  (98) 
None

>  <energy_score>  (98) 
-6.859674

>  <distance_score>  (98) 
0.414981

>  <gnina_score_min>  (98) 
6.405

>  <inchikey>  (98) 
DYEVYPDGGVNIHU-QULFXQSZSA-N

>  <exports>  (98) 
['/opt/xchem-fragalysis-2/maxwin/BulkDock/OUTPUTS/openbind_a71ev2a_c2_elabs_1LOUU54.sdf', '/opt/xchem-fragalysis-2/maxwin/BulkDock/OUTPUTS/openbind_a71ev2a_c2_elabs_1LSYIDY.sdf']

>  <name>  (98) 
P564703

>  <ref_pdb>  (98) 
A1346a

>  <subsites>  (98) 
None

>  <HIPPO Pose ID>  (98) 
564703

>  <ref_mols>  (98) 
A1346a

>  <HIPPO Compound ID>  (98) 
406334

>  <tags>  (98) 
openbind_a71ev2a_c2_elabs,syndirella_product,openbind_a71ev2a_c2_elabs_scored,BulkDock Fragalysis export,openbind_a71ev2a_c2_elabs_scored_top80percent,openbind_a71ev2a_c2_elabs_scored_6plus,openbind_a71ev2a_c2_elabs_scored_top80percent_despaghettified,syndirella_placed

>  <smina_score_min>  (98) 
-6.603

$$$$
P564710
     RDKit          3D

 35 38  0  0  0  0  0  0  0  0999 V2000
    5.9216   10.3418   26.9502 C   0  0  0  0  0  0  0  0  0  0  0  0
    7.0532   10.4948   26.0050 C   0  0  0  0  0  0  0  0  0  0  0  0
    7.4073    9.4788   25.2140 N   0  0  0  0  0  0  0  0  0  0  0  0
    8.4584    9.9383   24.5140 N   0  0  0  0  0  0  0  0  0  0  0  0
    9.0980    9.1182   23.5084 C   0  0  0  0  0  0  0  0  0  0  0  0
    8.8087   11.2045   24.8794 C   0  0  0  0  0  0  0  0  0  0  0  0
    9.9778   11.8763   24.3078 C   0  0  0  0  0  0  0  0  0  0  0  0
    7.8949   11.6205   25.8247 C   0  0  0  0  0  0  0  0  0  0  0  0
    7.8584   12.9083   26.5649 C   0  0  0  0  0  0  0  0  0  0  0  0
    7.4343   14.1733   25.8322 C   0  0  0  0  0  0  0  0  0  0  0  0
    7.9220   15.1955   26.1194 O   0  0  0  0  0  0  0  0  0  0  0  0
    6.2903   13.8518   24.8445 N   0  0  0  0  0  0  0  0  0  0  0  0
    5.4379   14.7342   24.0701 C   0  0  2  0  0  0  0  0  0  0  0  0
    6.1835   15.9591   23.5279 C   0  0  0  0  0  0  0  0  0  0  0  0
    7.1457   15.8449   22.4585 N   0  0  0  0  0  0  0  0  0  0  0  0
    7.8796   14.6088   21.8972 C   0  0  0  0  0  0  0  0  0  0  0  0
    7.7646   13.4763   22.1596 O   0  0  0  0  0  0  0  0  0  0  0  0
    8.9079   15.0853   20.8369 C   0  0  1  0  0  0  0  0  0  0  0  0
    9.1931   16.8354   20.8047 Cl  0  0  0  0  0  0  0  0  0  0  0  0
   10.2065   14.3119   20.8598 C   0  0  0  0  0  0  0  0  0  0  0  0
   11.1069   14.5968   21.9358 N   0  0  0  0  0  0  0  0  0  0  0  0
   10.8698   14.5382   23.2655 C   0  0  0  0  0  0  0  0  0  0  0  0
   11.9898   14.6427   23.9402 N   0  0  0  0  0  0  0  0  0  0  0  0
   12.8828   14.8324   22.9349 C   0  0  0  0  0  0  0  0  0  0  0  0
   12.4052   14.7669   21.6980 N   0  0  0  0  0  0  0  0  0  0  0  0
    4.2194   15.0802   24.9489 C   0  0  0  0  0  0  0  0  0  0  0  0
    3.6831   16.3678   25.0788 C   0  0  0  0  0  0  0  0  0  0  0  0
    2.5286   16.6055   25.8340 C   0  0  0  0  0  0  0  0  0  0  0  0
    1.9002   15.5680   26.5305 C   0  0  0  0  0  0  0  0  0  0  0  0
    0.7458   15.7900   27.2962 C   0  0  0  0  0  0  0  0  0  0  0  0
    0.1645   14.7498   28.0201 C   0  0  0  0  0  0  0  0  0  0  0  0
    0.7371   13.4822   27.9991 C   0  0  0  0  0  0  0  0  0  0  0  0
    1.8745   13.2448   27.2298 C   0  0  0  0  0  0  0  0  0  0  0  0
    2.4564   14.2756   26.4760 C   0  0  0  0  0  0  0  0  0  0  0  0
    3.5854   14.0505   25.6713 C   0  0  0  0  0  0  0  0  0  0  0  0
  1  2  1  0
  2  3  2  0
  3  4  1  0
  4  5  1  0
  4  6  1  0
  6  7  1  0
  6  8  2  0
  8  9  1  0
  9 10  1  0
 10 11  2  0
 10 12  1  0
 12 13  1  0
 13 14  1  1
 14 15  1  0
 15 16  1  0
 16 17  2  0
 16 18  1  0
 18 19  1  1
 18 20  1  0
 20 21  1  0
 21 22  1  0
 22 23  2  0
 23 24  1  0
 24 25  2  0
 13 26  1  0
 26 27  2  0
 27 28  1  0
 28 29  2  0
 29 30  1  0
 30 31  2  0
 31 32  1  0
 32 33  2  0
 33 34  1  0
 34 35  2  0
  8  2  1  0
 25 21  1  0
 35 26  1  0
 34 29  1  0
M  END
>  <alias>  (99) 
None

>  <rmsd(smina/fragmenstein)>  (99) 
0.363

>  <smiles>  (99) 
Cc1nn(C)c(C)c1CC(=O)N[C@H](CNC(=O)[C@@H](Cl)Cn1cncn1)c1ccc2ccccc2c1

>  <gnina_score>  (99) 
6.689

>  <inspiration_score>  (99) 
None

>  <energy_score>  (99) 
-0.072091

>  <distance_score>  (99) 
0.435752

>  <gnina_score_min>  (99) 
6.546

>  <inchikey>  (99) 
LCZOPGDHEPJFKU-XZOQPEGZSA-N

>  <exports>  (99) 
['/opt/xchem-fragalysis-2/maxwin/BulkDock/OUTPUTS/openbind_a71ev2a_c2_elabs_1LOUU54.sdf', '/opt/xchem-fragalysis-2/maxwin/BulkDock/OUTPUTS/openbind_a71ev2a_c2_elabs_1LSYIDY.sdf']

>  <name>  (99) 
P564710

>  <ref_pdb>  (99) 
A1346a

>  <subsites>  (99) 
None

>  <HIPPO Pose ID>  (99) 
564710

>  <ref_mols>  (99) 
A1346a

>  <HIPPO Compound ID>  (99) 
406335

>  <tags>  (99) 
openbind_a71ev2a_c2_elabs,syndirella_product,openbind_a71ev2a_c2_elabs_scored,BulkDock Fragalysis export,openbind_a71ev2a_c2_elabs_scored_top80percent,openbind_a71ev2a_c2_elabs_scored_6plus,openbind_a71ev2a_c2_elabs_scored_top80percent_despaghettified,syndirella_placed

>  <smina_score_min>  (99) 
-7.488

$$$$
P564714
     RDKit          3D

 35 38  0  0  0  0  0  0  0  0999 V2000
   10.3318   17.1011   17.8061 C   0  0  0  0  0  0  0  0  0  0  0  0
    9.5476   16.4794   18.7805 O   0  0  0  0  0  0  0  0  0  0  0  0
   10.2454   15.6684   19.5839 C   0  0  0  0  0  0  0  0  0  0  0  0
   11.2345   14.9983   19.3262 O   0  0  0  0  0  0  0  0  0  0  0  0
    9.6080   15.6789   20.9225 C   0  0  2  0  0  0  0  0  0  0  0  0
    8.9342   17.2357   21.4027 Cl  0  0  0  0  0  0  0  0  0  0  0  0
   10.1653   14.7332   21.9502 C   0  0  0  0  0  0  0  0  0  0  0  0
    8.8664   14.4329   21.2449 C   0  0  1  0  0  0  0  0  0  0  0  0
    7.6869   14.1258   22.0731 C   0  0  0  0  0  0  0  0  0  0  0  0
    7.5833   13.0102   22.3596 O   0  0  0  0  0  0  0  0  0  0  0  0
    6.7877   15.3033   22.3741 N   0  0  0  0  0  0  0  0  0  0  0  0
    5.5029   15.3584   23.0191 C   0  0  0  0  0  0  0  0  0  0  0  0
    5.6209   15.3828   24.5504 C   0  0  2  0  0  0  0  0  0  0  0  0
    6.4799   14.3666   25.1244 N   0  0  0  0  0  0  0  0  0  0  0  0
    7.6261   14.4859   26.1430 C   0  0  0  0  0  0  0  0  0  0  0  0
    8.1145   15.4304   26.6261 O   0  0  0  0  0  0  0  0  0  0  0  0
    8.0864   13.1286   26.6314 C   0  0  0  0  0  0  0  0  0  0  0  0
    8.0515   11.9081   25.7869 C   0  0  0  0  0  0  0  0  0  0  0  0
    7.2143   10.7719   25.9569 C   0  0  0  0  0  0  0  0  0  0  0  0
    6.1046   10.5749   26.9214 C   0  0  0  0  0  0  0  0  0  0  0  0
    7.5758    9.7667   25.1588 N   0  0  0  0  0  0  0  0  0  0  0  0
    8.5925   10.2592   24.4289 N   0  0  0  0  0  0  0  0  0  0  0  0
    9.2389    9.4163   23.4482 C   0  0  0  0  0  0  0  0  0  0  0  0
    8.9342   11.5377   24.7855 C   0  0  0  0  0  0  0  0  0  0  0  0
   10.0587   12.2721   24.1623 C   0  0  0  0  0  0  0  0  0  0  0  0
    4.2640   15.4214   25.2297 C   0  0  0  0  0  0  0  0  0  0  0  0
    3.5511   16.6272   25.2589 C   0  0  0  0  0  0  0  0  0  0  0  0
    2.3088   16.7121   25.8869 C   0  0  0  0  0  0  0  0  0  0  0  0
    1.7696   15.6009   26.5459 C   0  0  0  0  0  0  0  0  0  0  0  0
    0.5465   15.6814   27.2257 C   0  0  0  0  0  0  0  0  0  0  0  0
    0.0518   14.5813   27.9244 C   0  0  0  0  0  0  0  0  0  0  0  0
    0.7708   13.3897   27.9515 C   0  0  0  0  0  0  0  0  0  0  0  0
    1.9762   13.2869   27.2606 C   0  0  0  0  0  0  0  0  0  0  0  0
    2.4847   14.3831   26.5483 C   0  0  0  0  0  0  0  0  0  0  0  0
    3.7032   14.2994   25.8587 C   0  0  0  0  0  0  0  0  0  0  0  0
  1  2  1  0
  2  3  1  0
  3  4  2  0
  3  5  1  0
  5  6  1  1
  5  7  1  0
  7  8  1  0
  8  9  1  1
  9 10  2  0
  9 11  1  0
 11 12  1  0
 13 12  1  6
 13 14  1  0
 14 15  1  0
 15 16  2  0
 15 17  1  0
 17 18  1  0
 18 19  1  0
 19 20  1  0
 19 21  2  0
 21 22  1  0
 22 23  1  0
 22 24  1  0
 24 25  1  0
 13 26  1  0
 26 27  2  0
 27 28  1  0
 28 29  2  0
 29 30  1  0
 30 31  2  0
 31 32  1  0
 32 33  2  0
 33 34  1  0
 34 35  2  0
  8  5  1  0
 24 18  2  0
 35 26  1  0
 34 29  1  0
M  END
>  <alias>  (100) 
None

>  <rmsd(smina/fragmenstein)>  (100) 
0.427

>  <smiles>  (100) 
COC(=O)[C@]1(Cl)C[C@H]1C(=O)NC[C@H](NC(=O)Cc1c(C)nn(C)c1C)c1ccc2ccccc2c1

>  <gnina_score>  (100) 
6.487

>  <inspiration_score>  (100) 
None

>  <energy_score>  (100) 
-15.342131

>  <distance_score>  (100) 
0.434441

>  <gnina_score_min>  (100) 
6.471

>  <inchikey>  (100) 
QXZNGNMTOWCLNA-MCEYFSPLSA-N

>  <exports>  (100) 
['/opt/xchem-fragalysis-2/maxwin/BulkDock/OUTPUTS/openbind_a71ev2a_c2_elabs_1LOUU54.sdf', '/opt/xchem-fragalysis-2/maxwin/BulkDock/OUTPUTS/openbind_a71ev2a_c2_elabs_1LSYIDY.sdf']

>  <name>  (100) 
P564714

>  <ref_pdb>  (100) 
A1346a

>  <subsites>  (100) 
None

>  <HIPPO Pose ID>  (100) 
564714

>  <ref_mols>  (100) 
A1346a

>  <HIPPO Compound ID>  (100) 
406336

>  <tags>  (100) 
openbind_a71ev2a_c2_elabs,syndirella_product,openbind_a71ev2a_c2_elabs_scored,BulkDock Fragalysis export,openbind_a71ev2a_c2_elabs_scored_top80percent,openbind_a71ev2a_c2_elabs_scored_6plus,openbind_a71ev2a_c2_elabs_scored_top80percent_despaghettified,syndirella_placed

>  <smina_score_min>  (100) 
-7.499

$$$$
P564717
     RDKit          3D

 35 38  0  0  0  0  0  0  0  0999 V2000
    6.0897   10.5427   26.8944 C   0  0  0  0  0  0  0  0  0  0  0  0
    7.2134   10.7146   25.9407 C   0  0  0  0  0  0  0  0  0  0  0  0
    7.6048    9.6800   25.1954 N   0  0  0  0  0  0  0  0  0  0  0  0
    8.6328   10.1503   24.4691 N   0  0  0  0  0  0  0  0  0  0  0  0
    9.2697    9.2995   23.4888 C   0  0  0  0  0  0  0  0  0  0  0  0
    8.9639   11.4394   24.7934 C   0  0  0  0  0  0  0  0  0  0  0  0
   10.1427   12.1203   24.2204 C   0  0  0  0  0  0  0  0  0  0  0  0
    8.0167   11.8660   25.7108 C   0  0  0  0  0  0  0  0  0  0  0  0
    7.9289   13.1797   26.4125 C   0  0  0  0  0  0  0  0  0  0  0  0
    7.2780   14.3753   25.7079 C   0  0  0  0  0  0  0  0  0  0  0  0
    7.6828   15.4500   25.9239 O   0  0  0  0  0  0  0  0  0  0  0  0
    6.0691   13.9110   24.8635 N   0  0  0  0  0  0  0  0  0  0  0  0
    5.0412   14.6818   24.1808 C   0  0  2  0  0  0  0  0  0  0  0  0
    5.5147   15.9524   23.4867 C   0  0  0  0  0  0  0  0  0  0  0  0
    6.6870   15.9314   22.6863 N   0  0  0  0  0  0  0  0  0  0  0  0
    7.1806   14.8925   21.6591 C   0  0  0  0  0  0  0  0  0  0  0  0
    6.6653   13.9280   21.2516 O   0  0  0  0  0  0  0  0  0  0  0  0
    8.6299   15.3163   21.3044 C   0  0  0  0  0  0  0  0  0  0  0  0
    8.8385   17.0836   21.1813 Cl  0  0  0  0  0  0  0  0  0  0  0  0
    9.2085   14.7127   20.0506 C   0  0  0  0  0  0  0  0  0  0  0  0
   10.7096   14.7523   19.9372 C   0  0  0  0  0  0  0  0  0  0  0  0
   11.2694   14.2103   21.1564 N   0  0  0  0  0  0  0  0  0  0  0  0
   12.6928   14.1977   21.1135 C   0  0  0  0  0  0  0  0  0  0  0  0
   10.8523   14.9130   22.3436 C   0  0  0  0  0  0  0  0  0  0  0  0
    9.3788   14.6705   22.4613 C   0  0  0  0  0  0  0  0  0  0  0  0
    3.8759   14.9612   25.1365 C   0  0  0  0  0  0  0  0  0  0  0  0
    3.2215   16.2019   25.2146 C   0  0  0  0  0  0  0  0  0  0  0  0
    2.0898   16.3800   26.0091 C   0  0  0  0  0  0  0  0  0  0  0  0
    1.5958   15.3255   26.7777 C   0  0  0  0  0  0  0  0  0  0  0  0
    0.4491   15.4799   27.5656 C   0  0  0  0  0  0  0  0  0  0  0  0
   -0.0158   14.4233   28.3461 C   0  0  0  0  0  0  0  0  0  0  0  0
    0.6653   13.2089   28.3571 C   0  0  0  0  0  0  0  0  0  0  0  0
    1.8035   13.0396   27.5717 C   0  0  0  0  0  0  0  0  0  0  0  0
    2.2708   14.0865   26.7664 C   0  0  0  0  0  0  0  0  0  0  0  0
    3.3919   13.9222   25.9435 C   0  0  0  0  0  0  0  0  0  0  0  0
  1  2  1  0
  2  3  2  0
  3  4  1  0
  4  5  1  0
  4  6  1  0
  6  7  1  0
  6  8  2  0
  8  9  1  0
  9 10  1  0
 10 11  2  0
 10 12  1  0
 12 13  1  0
 13 14  1  1
 14 15  1  0
 15 16  1  0
 16 17  2  0
 16 18  1  0
 18 19  1  0
 18 20  1  0
 20 21  1  0
 21 22  1  0
 22 23  1  0
 22 24  1  0
 24 25  1  0
 13 26  1  0
 26 27  2  0
 27 28  1  0
 28 29  2  0
 29 30  1  0
 30 31  2  0
 31 32  1  0
 32 33  2  0
 33 34  1  0
 34 35  2  0
  8  2  1  0
 25 18  1  0
 35 26  1  0
 34 29  1  0
M  END
>  <alias>  (101) 
None

>  <rmsd(smina/fragmenstein)>  (101) 
0.467

>  <smiles>  (101) 
Cc1nn(C)c(C)c1CC(=O)N[C@H](CNC(=O)C1(Cl)CCN(C)CC1)c1ccc2ccccc2c1

>  <gnina_score>  (101) 
6.787

>  <inspiration_score>  (101) 
None

>  <energy_score>  (101) 
-24.363843

>  <distance_score>  (101) 
0.555016

>  <gnina_score_min>  (101) 
6.787

>  <inchikey>  (101) 
WLTMWWKHSQVUIM-XMMPIXPASA-N

>  <exports>  (101) 
['/opt/xchem-fragalysis-2/maxwin/BulkDock/OUTPUTS/openbind_a71ev2a_c2_elabs_1LOUU54.sdf', '/opt/xchem-fragalysis-2/maxwin/BulkDock/OUTPUTS/openbind_a71ev2a_c2_elabs_1LSYIDY.sdf']

>  <name>  (101) 
P564717

>  <ref_pdb>  (101) 
A1346a

>  <subsites>  (101) 
None

>  <HIPPO Pose ID>  (101) 
564717

>  <ref_mols>  (101) 
A1346a

>  <HIPPO Compound ID>  (101) 
406337

>  <tags>  (101) 
openbind_a71ev2a_c2_elabs,syndirella_product,openbind_a71ev2a_c2_elabs_scored,BulkDock Fragalysis export,openbind_a71ev2a_c2_elabs_scored_top80percent,openbind_a71ev2a_c2_elabs_scored_6plus,openbind_a71ev2a_c2_elabs_scored_top80percent_despaghettified,syndirella_placed

>  <smina_score_min>  (101) 
-6.54

$$$$
P564727
     RDKit          3D

 35 38  0  0  0  0  0  0  0  0999 V2000
    6.2030   10.6073   26.9158 C   0  0  0  0  0  0  0  0  0  0  0  0
    7.2681   10.8137   25.9035 C   0  0  0  0  0  0  0  0  0  0  0  0
    7.6121    9.8073   25.1007 N   0  0  0  0  0  0  0  0  0  0  0  0
    8.5987   10.3042   24.3293 N   0  0  0  0  0  0  0  0  0  0  0  0
    9.2619    9.4344   23.3826 C   0  0  0  0  0  0  0  0  0  0  0  0
    8.8940   11.6136   24.6183 C   0  0  0  0  0  0  0  0  0  0  0  0
    9.9523   12.3812   23.9150 C   0  0  0  0  0  0  0  0  0  0  0  0
    8.0781   11.9602   25.6835 C   0  0  0  0  0  0  0  0  0  0  0  0
    8.1530   13.1749   26.5331 C   0  0  0  0  0  0  0  0  0  0  0  0
    7.6334   14.5206   26.0718 C   0  0  0  0  0  0  0  0  0  0  0  0
    8.1073   15.4761   26.5472 O   0  0  0  0  0  0  0  0  0  0  0  0
    6.4575   14.3730   25.0892 N   0  0  0  0  0  0  0  0  0  0  0  0
    5.5489   15.3657   24.5532 C   0  0  1  0  0  0  0  0  0  0  0  0
    5.4194   15.3592   23.0235 C   0  0  0  0  0  0  0  0  0  0  0  0
    6.6822   15.6278   22.3883 N   0  0  0  0  0  0  0  0  0  0  0  0
    7.7272   14.6688   21.8010 C   0  0  0  0  0  0  0  0  0  0  0  0
    7.6993   13.5122   21.6674 O   0  0  0  0  0  0  0  0  0  0  0  0
    9.0120   15.4719   21.4579 C   0  0  2  0  0  0  0  0  0  0  0  0
    8.7545   17.1910   21.1438 Cl  0  0  0  0  0  0  0  0  0  0  0  0
    9.8713   14.8012   20.4005 C   0  0  1  0  0  0  0  0  0  0  0  0
   10.1844   15.5599   19.1159 C   0  0  0  0  0  0  0  0  0  0  0  0
   11.3846   14.8088   18.5768 C   0  0  0  0  0  0  0  0  0  0  0  0
   11.9904   14.2281   19.8045 C   0  0  0  0  0  0  0  0  0  0  0  0
   12.9793   13.5312   19.8444 O   0  0  0  0  0  0  0  0  0  0  0  0
   11.1835   14.4645   20.8876 N   0  0  0  0  0  0  0  0  0  0  0  0
    4.2053   15.3675   25.2514 C   0  0  0  0  0  0  0  0  0  0  0  0
    3.4679   16.5604   25.2829 C   0  0  0  0  0  0  0  0  0  0  0  0
    2.2330   16.6250   25.9244 C   0  0  0  0  0  0  0  0  0  0  0  0
    1.7273   15.5070   26.5959 C   0  0  0  0  0  0  0  0  0  0  0  0
    0.5110   15.5685   27.2883 C   0  0  0  0  0  0  0  0  0  0  0  0
    0.0473   14.4640   28.0005 C   0  0  0  0  0  0  0  0  0  0  0  0
    0.7903   13.2869   28.0277 C   0  0  0  0  0  0  0  0  0  0  0  0
    1.9907   13.2035   27.3254 C   0  0  0  0  0  0  0  0  0  0  0  0
    2.4691   14.3039   26.5992 C   0  0  0  0  0  0  0  0  0  0  0  0
    3.6818   14.2395   25.8970 C   0  0  0  0  0  0  0  0  0  0  0  0
  1  2  1  0
  2  3  2  0
  3  4  1  0
  4  5  1  0
  4  6  1  0
  6  7  1  0
  6  8  2  0
  8  9  1  0
  9 10  1  0
 10 11  2  0
 10 12  1  0
 12 13  1  0
 13 14  1  6
 14 15  1  0
 15 16  1  0
 16 17  2  0
 16 18  1  0
 18 19  1  6
 18 20  1  0
 20 21  1  6
 21 22  1  0
 22 23  1  0
 23 24  2  0
 23 25  1  0
 13 26  1  0
 26 27  2  0
 27 28  1  0
 28 29  2  0
 29 30  1  0
 30 31  2  0
 31 32  1  0
 32 33  2  0
 33 34  1  0
 34 35  2  0
  8  2  1  0
 25 20  1  0
 35 26  1  0
 34 29  1  0
M  END
>  <alias>  (102) 
None

>  <rmsd(smina/fragmenstein)>  (102) 
0.704

>  <smiles>  (102) 
Cc1nn(C)c(C)c1CC(=O)N[C@@H](CNC(=O)[C@H](Cl)[C@H]1CCC(=O)N1)c1ccc2ccccc2c1

>  <gnina_score>  (102) 
6.625

>  <inspiration_score>  (102) 
None

>  <energy_score>  (102) 
-11.975517

>  <distance_score>  (102) 
0.338523

>  <gnina_score_min>  (102) 
6.521

>  <inchikey>  (102) 
LZIWPGQHEYGXKU-OTNCWRBYSA-N

>  <exports>  (102) 
['/opt/xchem-fragalysis-2/maxwin/BulkDock/OUTPUTS/openbind_a71ev2a_c2_elabs_1LOUU54.sdf', '/opt/xchem-fragalysis-2/maxwin/BulkDock/OUTPUTS/openbind_a71ev2a_c2_elabs_1LSYIDY.sdf']

>  <name>  (102) 
P564727

>  <ref_pdb>  (102) 
A1346a

>  <subsites>  (102) 
None

>  <HIPPO Pose ID>  (102) 
564727

>  <ref_mols>  (102) 
A1346a

>  <HIPPO Compound ID>  (102) 
406339

>  <tags>  (102) 
openbind_a71ev2a_c2_elabs,syndirella_product,openbind_a71ev2a_c2_elabs_scored,BulkDock Fragalysis export,openbind_a71ev2a_c2_elabs_scored_top80percent,openbind_a71ev2a_c2_elabs_scored_6plus,openbind_a71ev2a_c2_elabs_scored_top80percent_despaghettified,syndirella_placed

>  <smina_score_min>  (102) 
-6.745

$$$$
P564729
     RDKit          3D

 36 39  0  0  0  0  0  0  0  0999 V2000
    6.2179   10.6039   26.9339 C   0  0  0  0  0  0  0  0  0  0  0  0
    7.2731   10.7993   25.9091 C   0  0  0  0  0  0  0  0  0  0  0  0
    7.6137    9.7831   25.1158 N   0  0  0  0  0  0  0  0  0  0  0  0
    8.5837   10.2772   24.3215 N   0  0  0  0  0  0  0  0  0  0  0  0
    9.2426    9.4034   23.3756 C   0  0  0  0  0  0  0  0  0  0  0  0
    8.8645   11.5942   24.5825 C   0  0  0  0  0  0  0  0  0  0  0  0
    9.8861   12.3684   23.8374 C   0  0  0  0  0  0  0  0  0  0  0  0
    8.0754   11.9460   25.6644 C   0  0  0  0  0  0  0  0  0  0  0  0
    8.1697   13.1708   26.4972 C   0  0  0  0  0  0  0  0  0  0  0  0
    7.6540   14.5173   26.0311 C   0  0  0  0  0  0  0  0  0  0  0  0
    8.1048   15.4710   26.5320 O   0  0  0  0  0  0  0  0  0  0  0  0
    6.5126   14.3720   25.0084 N   0  0  0  0  0  0  0  0  0  0  0  0
    5.6154   15.3635   24.4531 C   0  0  1  0  0  0  0  0  0  0  0  0
    5.4796   15.3350   22.9223 C   0  0  0  0  0  0  0  0  0  0  0  0
    6.6395   15.8787   22.2515 N   0  0  0  0  0  0  0  0  0  0  0  0
    7.7296   15.1819   21.4120 C   0  0  0  0  0  0  0  0  0  0  0  0
    7.8220   14.0713   21.0648 O   0  0  0  0  0  0  0  0  0  0  0  0
    8.8665   16.2136   21.1374 C   0  0  2  0  0  0  0  0  0  0  0  0
    8.5580   17.6596   20.1926 Cl  0  0  0  0  0  0  0  0  0  0  0  0
   10.1126   15.5077   20.7311 C   0  0  0  0  0  0  0  0  0  0  0  0
   10.9541   14.9850   21.7181 C   0  0  0  0  0  0  0  0  0  0  0  0
   12.0671   14.2632   21.3574 C   0  0  0  0  0  0  0  0  0  0  0  0
   12.3362   14.0683   20.0091 C   0  0  0  0  0  0  0  0  0  0  0  0
   11.5135   14.5745   19.0168 C   0  0  0  0  0  0  0  0  0  0  0  0
   10.3936   15.2772   19.3904 C   0  0  0  0  0  0  0  0  0  0  0  0
    9.5614   15.7249   18.4479 F   0  0  0  0  0  0  0  0  0  0  0  0
    4.2736   15.3738   25.1651 C   0  0  0  0  0  0  0  0  0  0  0  0
    3.5477   16.5728   25.2139 C   0  0  0  0  0  0  0  0  0  0  0  0
    2.3181   16.6456   25.8668 C   0  0  0  0  0  0  0  0  0  0  0  0
    1.8055   15.5294   26.5360 C   0  0  0  0  0  0  0  0  0  0  0  0
    0.5928   15.5982   27.2353 C   0  0  0  0  0  0  0  0  0  0  0  0
    0.1217   14.4945   27.9440 C   0  0  0  0  0  0  0  0  0  0  0  0
    0.8558   13.3120   27.9637 C   0  0  0  0  0  0  0  0  0  0  0  0
    2.0531   13.2227   27.2560 C   0  0  0  0  0  0  0  0  0  0  0  0
    2.5369   14.3206   26.5284 C   0  0  0  0  0  0  0  0  0  0  0  0
    3.7435   14.2485   25.8126 C   0  0  0  0  0  0  0  0  0  0  0  0
  1  2  1  0
  2  3  2  0
  3  4  1  0
  4  5  1  0
  4  6  1  0
  6  7  1  0
  6  8  2  0
  8  9  1  0
  9 10  1  0
 10 11  2  0
 10 12  1  0
 12 13  1  0
 13 14  1  6
 14 15  1  0
 15 16  1  0
 16 17  2  0
 16 18  1  0
 18 19  1  6
 18 20  1  0
 20 21  2  0
 21 22  1  0
 22 23  2  0
 23 24  1  0
 24 25  2  0
 25 26  1  0
 13 27  1  0
 27 28  2  0
 28 29  1  0
 29 30  2  0
 30 31  1  0
 31 32  2  0
 32 33  1  0
 33 34  2  0
 34 35  1  0
 35 36  2  0
  8  2  1  0
 25 20  1  0
 36 27  1  0
 35 30  1  0
M  END
>  <alias>  (103) 
None

>  <rmsd(smina/fragmenstein)>  (103) 
0.671

>  <smiles>  (103) 
Cc1nn(C)c(C)c1CC(=O)N[C@@H](CNC(=O)[C@H](Cl)c1ccccc1F)c1ccc2ccccc2c1

>  <gnina_score>  (103) 
6.383

>  <inspiration_score>  (103) 
None

>  <energy_score>  (103) 
-5.170492

>  <distance_score>  (103) 
0.462952

>  <gnina_score_min>  (103) 
6.42

>  <inchikey>  (103) 
JSMUYSUQBGMZTH-AHKZPQOWSA-N

>  <exports>  (103) 
['/opt/xchem-fragalysis-2/maxwin/BulkDock/OUTPUTS/openbind_a71ev2a_c2_elabs_1LOUU54.sdf', '/opt/xchem-fragalysis-2/maxwin/BulkDock/OUTPUTS/openbind_a71ev2a_c2_elabs_1LSYIDY.sdf']

>  <name>  (103) 
P564729

>  <ref_pdb>  (103) 
A1346a

>  <subsites>  (103) 
None

>  <HIPPO Pose ID>  (103) 
564729

>  <ref_mols>  (103) 
A1346a

>  <HIPPO Compound ID>  (103) 
406341

>  <tags>  (103) 
openbind_a71ev2a_c2_elabs,syndirella_product,openbind_a71ev2a_c2_elabs_scored,BulkDock Fragalysis export,openbind_a71ev2a_c2_elabs_scored_top80percent,openbind_a71ev2a_c2_elabs_scored_6plus,openbind_a71ev2a_c2_elabs_scored_top80percent_despaghettified,syndirella_placed

>  <smina_score_min>  (103) 
-7.516

$$$$
P564730
     RDKit          3D

 36 39  0  0  0  0  0  0  0  0999 V2000
    5.9186   10.2698   27.0013 C   0  0  0  0  0  0  0  0  0  0  0  0
    7.0229   10.4381   26.0271 C   0  0  0  0  0  0  0  0  0  0  0  0
    7.3907    9.4188   25.2457 N   0  0  0  0  0  0  0  0  0  0  0  0
    8.4082    9.8972   24.5088 N   0  0  0  0  0  0  0  0  0  0  0  0
    9.0725    9.0683   23.5273 C   0  0  0  0  0  0  0  0  0  0  0  0
    8.6980   11.1903   24.8170 C   0  0  0  0  0  0  0  0  0  0  0  0
    9.7760   11.9202   24.1544 C   0  0  0  0  0  0  0  0  0  0  0  0
    7.8266   11.5829   25.8109 C   0  0  0  0  0  0  0  0  0  0  0  0
    7.8047   12.8669   26.5602 C   0  0  0  0  0  0  0  0  0  0  0  0
    7.3416   14.1419   25.8685 C   0  0  0  0  0  0  0  0  0  0  0  0
    7.8177   15.1648   26.1740 O   0  0  0  0  0  0  0  0  0  0  0  0
    6.1832   13.8270   24.8947 N   0  0  0  0  0  0  0  0  0  0  0  0
    5.2980   14.7173   24.1599 C   0  0  2  0  0  0  0  0  0  0  0  0
    6.0165   15.9568   23.6305 C   0  0  0  0  0  0  0  0  0  0  0  0
    6.9613   15.8571   22.5555 N   0  0  0  0  0  0  0  0  0  0  0  0
    7.5174   14.6176   21.8187 C   0  0  0  0  0  0  0  0  0  0  0  0
    7.2360   13.4863   21.9187 O   0  0  0  0  0  0  0  0  0  0  0  0
    8.6846   15.0916   20.9113 C   0  0  1  0  0  0  0  0  0  0  0  0
    8.8548   16.8823   20.7728 Cl  0  0  0  0  0  0  0  0  0  0  0  0
   10.0348   14.6303   21.3609 C   0  0  0  0  0  0  0  0  0  0  0  0
   11.0408   14.4917   20.4076 C   0  0  0  0  0  0  0  0  0  0  0  0
   12.3486   14.4047   20.8302 C   0  0  0  0  0  0  0  0  0  0  0  0
   12.6528   14.5157   22.1825 C   0  0  0  0  0  0  0  0  0  0  0  0
   11.6653   14.4667   23.1323 C   0  0  0  0  0  0  0  0  0  0  0  0
   12.0853   14.3314   24.7950 Cl  0  0  0  0  0  0  0  0  0  0  0  0
   10.3505   14.5436   22.7192 C   0  0  0  0  0  0  0  0  0  0  0  0
    4.0977   15.0514   25.0636 C   0  0  0  0  0  0  0  0  0  0  0  0
    3.5439   16.3337   25.1897 C   0  0  0  0  0  0  0  0  0  0  0  0
    2.3932   16.5590   25.9514 C   0  0  0  0  0  0  0  0  0  0  0  0
    1.7860   15.5142   26.6539 C   0  0  0  0  0  0  0  0  0  0  0  0
    0.6326   15.7218   27.4231 C   0  0  0  0  0  0  0  0  0  0  0  0
    0.0698   14.6742   28.1506 C   0  0  0  0  0  0  0  0  0  0  0  0
    0.6589   13.4137   28.1280 C   0  0  0  0  0  0  0  0  0  0  0  0
    1.7961   13.1900   27.3550 C   0  0  0  0  0  0  0  0  0  0  0  0
    2.3603   14.2291   26.6009 C   0  0  0  0  0  0  0  0  0  0  0  0
    3.4877   14.0161   25.7947 C   0  0  0  0  0  0  0  0  0  0  0  0
  1  2  1  0
  2  3  2  0
  3  4  1  0
  4  5  1  0
  4  6  1  0
  6  7  1  0
  6  8  2  0
  8  9  1  0
  9 10  1  0
 10 11  2  0
 10 12  1  0
 12 13  1  0
 13 14  1  1
 14 15  1  0
 15 16  1  0
 16 17  2  0
 16 18  1  0
 18 19  1  1
 18 20  1  0
 20 21  2  0
 21 22  1  0
 22 23  2  0
 23 24  1  0
 24 25  1  0
 24 26  2  0
 13 27  1  0
 27 28  2  0
 28 29  1  0
 29 30  2  0
 30 31  1  0
 31 32  2  0
 32 33  1  0
 33 34  2  0
 34 35  1  0
 35 36  2  0
  8  2  1  0
 26 20  1  0
 36 27  1  0
 35 30  1  0
M  END
>  <alias>  (104) 
None

>  <rmsd(smina/fragmenstein)>  (104) 
0.707

>  <smiles>  (104) 
Cc1nn(C)c(C)c1CC(=O)N[C@H](CNC(=O)[C@@H](Cl)c1cccc(Cl)c1)c1ccc2ccccc2c1

>  <gnina_score>  (104) 
6.933

>  <inspiration_score>  (104) 
None

>  <energy_score>  (104) 
-3.812993

>  <distance_score>  (104) 
0.466771

>  <gnina_score_min>  (104) 
6.815

>  <inchikey>  (104) 
XODHUMQKPGLMCZ-VPUSJEBWSA-N

>  <exports>  (104) 
['/opt/xchem-fragalysis-2/maxwin/BulkDock/OUTPUTS/openbind_a71ev2a_c2_elabs_1LOUU54.sdf', '/opt/xchem-fragalysis-2/maxwin/BulkDock/OUTPUTS/openbind_a71ev2a_c2_elabs_1LSYIDY.sdf']

>  <name>  (104) 
P564730

>  <ref_pdb>  (104) 
A1346a

>  <subsites>  (104) 
None

>  <HIPPO Pose ID>  (104) 
564730

>  <ref_mols>  (104) 
A1346a

>  <HIPPO Compound ID>  (104) 
406342

>  <tags>  (104) 
openbind_a71ev2a_c2_elabs,syndirella_product,openbind_a71ev2a_c2_elabs_scored,BulkDock Fragalysis export,openbind_a71ev2a_c2_elabs_scored_top80percent,openbind_a71ev2a_c2_elabs_scored_6plus,openbind_a71ev2a_c2_elabs_scored_top80percent_despaghettified,syndirella_placed

>  <smina_score_min>  (104) 
-7.329

$$$$
P564738
     RDKit          3D

 36 39  0  0  0  0  0  0  0  0999 V2000
    6.0641   10.4736   27.1546 C   0  0  0  0  0  0  0  0  0  0  0  0
    7.0754   10.6034   26.0794 C   0  0  0  0  0  0  0  0  0  0  0  0
    7.3899    9.5419   25.3297 N   0  0  0  0  0  0  0  0  0  0  0  0
    8.3487    9.9807   24.4948 N   0  0  0  0  0  0  0  0  0  0  0  0
    9.0428    9.0577   23.6240 C   0  0  0  0  0  0  0  0  0  0  0  0
    8.5718   11.3194   24.6276 C   0  0  0  0  0  0  0  0  0  0  0  0
    9.4825   12.0506   23.7381 C   0  0  0  0  0  0  0  0  0  0  0  0
    7.8590   11.7330   25.7393 C   0  0  0  0  0  0  0  0  0  0  0  0
    8.0151   13.0134   26.4791 C   0  0  0  0  0  0  0  0  0  0  0  0
    6.8912   14.0327   26.5198 C   0  0  0  0  0  0  0  0  0  0  0  0
    6.6292   14.5558   27.5305 O   0  0  0  0  0  0  0  0  0  0  0  0
    6.3352   14.2669   25.0976 N   0  0  0  0  0  0  0  0  0  0  0  0
    5.4023   15.2661   24.6007 C   0  0  1  0  0  0  0  0  0  0  0  0
    5.2855   15.2827   23.0644 C   0  0  0  0  0  0  0  0  0  0  0  0
    6.5788   15.5524   22.5031 N   0  0  0  0  0  0  0  0  0  0  0  0
    7.5627   14.6230   21.7579 C   0  0  0  0  0  0  0  0  0  0  0  0
    7.4431   13.5159   21.4168 O   0  0  0  0  0  0  0  0  0  0  0  0
    8.8516   15.4185   21.6203 C   0  0  2  0  0  0  0  0  0  0  0  0
    8.6847   17.1035   21.1170 Cl  0  0  0  0  0  0  0  0  0  0  0  0
   10.0686   14.8477   20.9950 C   0  0  0  0  0  0  0  0  0  0  0  0
   10.1877   14.8852   19.5980 C   0  0  0  0  0  0  0  0  0  0  0  0
   11.3672   14.5319   18.9799 C   0  0  0  0  0  0  0  0  0  0  0  0
   12.4391   14.1925   19.7628 C   0  0  0  0  0  0  0  0  0  0  0  0
   12.3642   14.2342   21.1333 C   0  0  0  0  0  0  0  0  0  0  0  0
   11.1872   14.5059   21.7631 C   0  0  0  0  0  0  0  0  0  0  0  0
   11.3503   14.4988   23.4777 Cl  0  0  0  0  0  0  0  0  0  0  0  0
    4.0551   15.2624   25.2769 C   0  0  0  0  0  0  0  0  0  0  0  0
    3.3122   16.4531   25.2929 C   0  0  0  0  0  0  0  0  0  0  0  0
    2.0837   16.5212   25.9427 C   0  0  0  0  0  0  0  0  0  0  0  0
    1.5970   15.4114   26.6402 C   0  0  0  0  0  0  0  0  0  0  0  0
    0.3952   15.4804   27.3550 C   0  0  0  0  0  0  0  0  0  0  0  0
   -0.0446   14.3886   28.1011 C   0  0  0  0  0  0  0  0  0  0  0  0
    0.7062   13.2162   28.1369 C   0  0  0  0  0  0  0  0  0  0  0  0
    1.8910   13.1237   27.4102 C   0  0  0  0  0  0  0  0  0  0  0  0
    2.3458   14.2117   26.6533 C   0  0  0  0  0  0  0  0  0  0  0  0
    3.5470   14.1400   25.9373 C   0  0  0  0  0  0  0  0  0  0  0  0
  1  2  1  0
  2  3  2  0
  3  4  1  0
  4  5  1  0
  4  6  1  0
  6  7  1  0
  6  8  2  0
  8  9  1  0
  9 10  1  0
 10 11  2  0
 10 12  1  0
 12 13  1  0
 13 14  1  6
 14 15  1  0
 15 16  1  0
 16 17  2  0
 16 18  1  0
 18 19  1  6
 18 20  1  0
 20 21  2  0
 21 22  1  0
 22 23  2  0
 23 24  1  0
 24 25  2  0
 25 26  1  0
 13 27  1  0
 27 28  2  0
 28 29  1  0
 29 30  2  0
 30 31  1  0
 31 32  2  0
 32 33  1  0
 33 34  2  0
 34 35  1  0
 35 36  2  0
  8  2  1  0
 25 20  1  0
 36 27  1  0
 35 30  1  0
M  END
>  <alias>  (105) 
None

>  <rmsd(smina/fragmenstein)>  (105) 
0.953

>  <smiles>  (105) 
Cc1nn(C)c(C)c1CC(=O)N[C@@H](CNC(=O)[C@H](Cl)c1ccccc1Cl)c1ccc2ccccc2c1

>  <gnina_score>  (105) 
6.724

>  <inspiration_score>  (105) 
None

>  <energy_score>  (105) 
-12.950748

>  <distance_score>  (105) 
0.527338

>  <gnina_score_min>  (105) 
6.714

>  <inchikey>  (105) 
DVIXGIYMMVGASZ-AHKZPQOWSA-N

>  <exports>  (105) 
['/opt/xchem-fragalysis-2/maxwin/BulkDock/OUTPUTS/openbind_a71ev2a_c2_elabs_1LOUU54.sdf', '/opt/xchem-fragalysis-2/maxwin/BulkDock/OUTPUTS/openbind_a71ev2a_c2_elabs_1LSYIDY.sdf']

>  <name>  (105) 
P564738

>  <ref_pdb>  (105) 
A1346a

>  <subsites>  (105) 
None

>  <HIPPO Pose ID>  (105) 
564738

>  <ref_mols>  (105) 
A1346a

>  <HIPPO Compound ID>  (105) 
406345

>  <tags>  (105) 
openbind_a71ev2a_c2_elabs,syndirella_product,openbind_a71ev2a_c2_elabs_scored,BulkDock Fragalysis export,openbind_a71ev2a_c2_elabs_scored_top80percent,openbind_a71ev2a_c2_elabs_scored_6plus,openbind_a71ev2a_c2_elabs_scored_top80percent_despaghettified,syndirella_placed

>  <smina_score_min>  (105) 
-7.284

$$$$
P564741
     RDKit          3D

 36 39  0  0  0  0  0  0  0  0999 V2000
   12.0787   14.4783   25.2906 C   0  0  0  0  0  0  0  0  0  0  0  0
   12.5029   14.0227   23.9031 C   0  0  0  0  0  0  0  0  0  0  0  0
   11.9747   14.7325   22.7785 O   0  0  0  0  0  0  0  0  0  0  0  0
   10.6291   14.6947   22.5934 C   0  0  0  0  0  0  0  0  0  0  0  0
    9.8265   14.4491   23.4813 O   0  0  0  0  0  0  0  0  0  0  0  0
   10.1972   15.0246   21.2043 C   0  0  2  0  0  0  0  0  0  0  0  0
   11.3047   14.5221   19.8779 Cl  0  0  0  0  0  0  0  0  0  0  0  0
    9.3955   16.2853   20.9303 C   0  0  0  0  0  0  0  0  0  0  0  0
    8.7248   14.9495   20.8315 C   0  0  2  0  0  0  0  0  0  0  0  0
    7.7004   14.3965   21.7642 C   0  0  0  0  0  0  0  0  0  0  0  0
    7.7273   13.2540   21.9539 O   0  0  0  0  0  0  0  0  0  0  0  0
    6.7139   15.4511   22.2374 N   0  0  0  0  0  0  0  0  0  0  0  0
    5.4831   15.3185   22.9745 C   0  0  0  0  0  0  0  0  0  0  0  0
    5.6592   15.3215   24.4995 C   0  0  2  0  0  0  0  0  0  0  0  0
    6.4787   14.2589   25.0420 N   0  0  0  0  0  0  0  0  0  0  0  0
    7.6516   14.3095   26.0374 C   0  0  0  0  0  0  0  0  0  0  0  0
    8.1961   15.2238   26.5212 O   0  0  0  0  0  0  0  0  0  0  0  0
    8.0582   12.9232   26.5026 C   0  0  0  0  0  0  0  0  0  0  0  0
    7.8960   11.6790   25.7060 C   0  0  0  0  0  0  0  0  0  0  0  0
    7.0180   10.5902   25.9529 C   0  0  0  0  0  0  0  0  0  0  0  0
    5.9466   10.4914   26.9722 C   0  0  0  0  0  0  0  0  0  0  0  0
    7.3157    9.5250   25.2001 N   0  0  0  0  0  0  0  0  0  0  0  0
    8.3405    9.9290   24.4288 N   0  0  0  0  0  0  0  0  0  0  0  0
    8.9776    9.0383   23.4823 C   0  0  0  0  0  0  0  0  0  0  0  0
    8.7362   11.1958   24.7245 C   0  0  0  0  0  0  0  0  0  0  0  0
    9.9325   11.7598   24.1051 C   0  0  0  0  0  0  0  0  0  0  0  0
    4.3123   15.3875   25.2071 C   0  0  0  0  0  0  0  0  0  0  0  0
    3.6164   16.6032   25.2447 C   0  0  0  0  0  0  0  0  0  0  0  0
    2.3783   16.7045   25.8797 C   0  0  0  0  0  0  0  0  0  0  0  0
    1.8249   15.5994   26.5372 C   0  0  0  0  0  0  0  0  0  0  0  0
    0.6018   15.6937   27.2160 C   0  0  0  0  0  0  0  0  0  0  0  0
    0.0913   14.5978   27.9102 C   0  0  0  0  0  0  0  0  0  0  0  0
    0.7958   13.3977   27.9361 C   0  0  0  0  0  0  0  0  0  0  0  0
    2.0018   13.2824   27.2480 C   0  0  0  0  0  0  0  0  0  0  0  0
    2.5248   14.3730   26.5372 C   0  0  0  0  0  0  0  0  0  0  0  0
    3.7406   14.2745   25.8433 C   0  0  0  0  0  0  0  0  0  0  0  0
  1  2  1  0
  2  3  1  0
  3  4  1  0
  4  5  2  0
  4  6  1  0
  6  7  1  6
  6  8  1  0
  8  9  1  0
  9 10  1  1
 10 11  2  0
 10 12  1  0
 12 13  1  0
 14 13  1  6
 14 15  1  0
 15 16  1  0
 16 17  2  0
 16 18  1  0
 18 19  1  0
 19 20  1  0
 20 21  1  0
 20 22  2  0
 22 23  1  0
 23 24  1  0
 23 25  1  0
 25 26  1  0
 14 27  1  0
 27 28  2  0
 28 29  1  0
 29 30  2  0
 30 31  1  0
 31 32  2  0
 32 33  1  0
 33 34  2  0
 34 35  1  0
 35 36  2  0
  9  6  1  0
 25 19  2  0
 36 27  1  0
 35 30  1  0
M  END
>  <alias>  (106) 
None

>  <rmsd(smina/fragmenstein)>  (106) 
0.733

>  <smiles>  (106) 
CCOC(=O)[C@]1(Cl)C[C@@H]1C(=O)NC[C@H](NC(=O)Cc1c(C)nn(C)c1C)c1ccc2ccccc2c1

>  <gnina_score>  (106) 
6.761

>  <inspiration_score>  (106) 
None

>  <energy_score>  (106) 
-7.556796

>  <distance_score>  (106) 
0.357288

>  <gnina_score_min>  (106) 
6.847

>  <inchikey>  (106) 
LAYSTLNDHVCHPL-KHVXQDHOSA-N

>  <exports>  (106) 
['/opt/xchem-fragalysis-2/maxwin/BulkDock/OUTPUTS/openbind_a71ev2a_c2_elabs_1LOUU54.sdf', '/opt/xchem-fragalysis-2/maxwin/BulkDock/OUTPUTS/openbind_a71ev2a_c2_elabs_1LSYIDY.sdf']

>  <name>  (106) 
P564741

>  <ref_pdb>  (106) 
A1346a

>  <subsites>  (106) 
None

>  <HIPPO Pose ID>  (106) 
564741

>  <ref_mols>  (106) 
A1346a

>  <HIPPO Compound ID>  (106) 
406347

>  <tags>  (106) 
openbind_a71ev2a_c2_elabs,syndirella_product,openbind_a71ev2a_c2_elabs_scored,BulkDock Fragalysis export,openbind_a71ev2a_c2_elabs_scored_top80percent,openbind_a71ev2a_c2_elabs_scored_6plus,openbind_a71ev2a_c2_elabs_scored_top80percent_despaghettified,syndirella_placed

>  <smina_score_min>  (106) 
-6.822

$$$$
P564747
     RDKit          3D

 36 39  0  0  0  0  0  0  0  0999 V2000
    5.9092   10.3091   26.9088 C   0  0  0  0  0  0  0  0  0  0  0  0
    7.0270   10.5257   25.9588 C   0  0  0  0  0  0  0  0  0  0  0  0
    7.4372    9.5254   25.1765 N   0  0  0  0  0  0  0  0  0  0  0  0
    8.4556   10.0430   24.4664 N   0  0  0  0  0  0  0  0  0  0  0  0
    9.1424    9.2430   23.4755 C   0  0  0  0  0  0  0  0  0  0  0  0
    8.7409   11.3283   24.8285 C   0  0  0  0  0  0  0  0  0  0  0  0
    9.8758   12.0615   24.2546 C   0  0  0  0  0  0  0  0  0  0  0  0
    7.8207   11.6905   25.7916 C   0  0  0  0  0  0  0  0  0  0  0  0
    7.7681   12.9194   26.6201 C   0  0  0  0  0  0  0  0  0  0  0  0
    7.5435   14.2876   26.0010 C   0  0  0  0  0  0  0  0  0  0  0  0
    8.2469   15.1774   26.2731 O   0  0  0  0  0  0  0  0  0  0  0  0
    6.2699   14.2505   25.1367 N   0  0  0  0  0  0  0  0  0  0  0  0
    5.5336   15.3232   24.4986 C   0  0  1  0  0  0  0  0  0  0  0  0
    5.3889   15.2590   22.9726 C   0  0  0  0  0  0  0  0  0  0  0  0
    6.5972   15.5646   22.2488 N   0  0  0  0  0  0  0  0  0  0  0  0
    7.7313   14.6482   21.7690 C   0  0  0  0  0  0  0  0  0  0  0  0
    7.8352   13.4886   21.8138 O   0  0  0  0  0  0  0  0  0  0  0  0
    8.8169   15.4733   21.0428 C   0  0  1  0  0  0  0  0  0  0  0  0
    8.5877   17.2293   20.9838 Cl  0  0  0  0  0  0  0  0  0  0  0  0
   10.2321   15.2577   21.5425 C   0  0  2  0  0  0  0  0  0  0  0  0
   11.0645   14.5383   20.4964 C   0  0  0  0  0  0  0  0  0  0  0  0
   12.4067   14.1431   21.0849 C   0  0  0  0  0  0  0  0  0  0  0  0
   12.7399   14.9131   22.3577 C   0  0  0  0  0  0  0  0  0  0  0  0
   11.6816   14.6363   23.3795 C   0  0  0  0  0  0  0  0  0  0  0  0
   11.9161   14.4725   24.5721 O   0  0  0  0  0  0  0  0  0  0  0  0
   10.4140   14.6530   22.8453 N   0  0  0  0  0  0  0  0  0  0  0  0
    4.1706   15.4402   25.1753 C   0  0  0  0  0  0  0  0  0  0  0  0
    3.5351   16.6851   25.2405 C   0  0  0  0  0  0  0  0  0  0  0  0
    2.3061   16.8283   25.8867 C   0  0  0  0  0  0  0  0  0  0  0  0
    1.7084   15.7380   26.5337 C   0  0  0  0  0  0  0  0  0  0  0  0
    0.5051   15.8739   27.2400 C   0  0  0  0  0  0  0  0  0  0  0  0
   -0.0369   14.7912   27.9320 C   0  0  0  0  0  0  0  0  0  0  0  0
    0.6150   13.5617   27.9275 C   0  0  0  0  0  0  0  0  0  0  0  0
    1.7940   13.4019   27.2046 C   0  0  0  0  0  0  0  0  0  0  0  0
    2.3468   14.4809   26.4998 C   0  0  0  0  0  0  0  0  0  0  0  0
    3.5420   14.3397   25.7849 C   0  0  0  0  0  0  0  0  0  0  0  0
  1  2  1  0
  2  3  2  0
  3  4  1  0
  4  5  1  0
  4  6  1  0
  6  7  1  0
  6  8  2  0
  8  9  1  0
  9 10  1  0
 10 11  2  0
 10 12  1  0
 12 13  1  0
 13 14  1  6
 14 15  1  0
 15 16  1  0
 16 17  2  0
 16 18  1  0
 18 19  1  1
 18 20  1  0
 20 21  1  6
 21 22  1  0
 22 23  1  0
 23 24  1  0
 24 25  2  0
 24 26  1  0
 13 27  1  0
 27 28  2  0
 28 29  1  0
 29 30  2  0
 30 31  1  0
 31 32  2  0
 32 33  1  0
 33 34  2  0
 34 35  1  0
 35 36  2  0
  8  2  1  0
 26 20  1  0
 36 27  1  0
 35 30  1  0
M  END
>  <alias>  (107) 
None

>  <rmsd(smina/fragmenstein)>  (107) 
0.663

>  <smiles>  (107) 
Cc1nn(C)c(C)c1CC(=O)N[C@@H](CNC(=O)[C@@H](Cl)[C@@H]1CCCC(=O)N1)c1ccc2ccccc2c1

>  <gnina_score>  (107) 
6.667

>  <inspiration_score>  (107) 
None

>  <energy_score>  (107) 
-12.929476

>  <distance_score>  (107) 
0.405444

>  <gnina_score_min>  (107) 
6.611

>  <inchikey>  (107) 
PUERZRWMXVRVJR-FXSPECFOSA-N

>  <exports>  (107) 
['/opt/xchem-fragalysis-2/maxwin/BulkDock/OUTPUTS/openbind_a71ev2a_c2_elabs_1LOUU54.sdf', '/opt/xchem-fragalysis-2/maxwin/BulkDock/OUTPUTS/openbind_a71ev2a_c2_elabs_1LSYIDY.sdf']

>  <name>  (107) 
P564747

>  <ref_pdb>  (107) 
A1346a

>  <subsites>  (107) 
None

>  <HIPPO Pose ID>  (107) 
564747

>  <ref_mols>  (107) 
A1346a

>  <HIPPO Compound ID>  (107) 
406348

>  <tags>  (107) 
openbind_a71ev2a_c2_elabs,syndirella_product,openbind_a71ev2a_c2_elabs_scored,BulkDock Fragalysis export,openbind_a71ev2a_c2_elabs_scored_top80percent,openbind_a71ev2a_c2_elabs_scored_6plus,openbind_a71ev2a_c2_elabs_scored_top80percent_despaghettified,syndirella_placed

>  <smina_score_min>  (107) 
-7.136

$$$$
P564752
     RDKit          3D

 36 39  0  0  0  0  0  0  0  0999 V2000
    6.0349   10.5048   26.9449 C   0  0  0  0  0  0  0  0  0  0  0  0
    7.1353   10.6752   25.9651 C   0  0  0  0  0  0  0  0  0  0  0  0
    7.4876    9.6517   25.1852 N   0  0  0  0  0  0  0  0  0  0  0  0
    8.5111   10.1169   24.4455 N   0  0  0  0  0  0  0  0  0  0  0  0
    9.1571    9.2584   23.4750 C   0  0  0  0  0  0  0  0  0  0  0  0
    8.8431   11.4056   24.7669 C   0  0  0  0  0  0  0  0  0  0  0  0
    9.9718   12.1090   24.1357 C   0  0  0  0  0  0  0  0  0  0  0  0
    7.9681   11.8066   25.7594 C   0  0  0  0  0  0  0  0  0  0  0  0
    8.0086   13.0535   26.5647 C   0  0  0  0  0  0  0  0  0  0  0  0
    7.5890   14.3967   25.9968 C   0  0  0  0  0  0  0  0  0  0  0  0
    8.1228   15.3560   26.3941 O   0  0  0  0  0  0  0  0  0  0  0  0
    6.4086   14.2433   25.0212 N   0  0  0  0  0  0  0  0  0  0  0  0
    5.5672   15.2443   24.3968 C   0  0  1  0  0  0  0  0  0  0  0  0
    5.5005   15.1800   22.8585 C   0  0  0  0  0  0  0  0  0  0  0  0
    6.6620   15.8108   22.2662 N   0  0  0  0  0  0  0  0  0  0  0  0
    7.7789   15.2213   21.3686 C   0  0  0  0  0  0  0  0  0  0  0  0
    7.8931   14.1563   20.9057 O   0  0  0  0  0  0  0  0  0  0  0  0
    8.8767   16.2988   21.2384 C   0  0  2  0  0  0  0  0  0  0  0  0
    8.6739   17.5675   20.0281 Cl  0  0  0  0  0  0  0  0  0  0  0  0
   10.2913   15.7196   21.2525 C   0  0  1  0  0  0  0  0  0  0  0  0
   10.5780   14.6490   22.2902 C   0  0  0  0  0  0  0  0  0  0  0  0
   11.9427   14.1203   21.8866 C   0  0  0  0  0  0  0  0  0  0  0  0
   11.8655   14.2014   20.3906 C   0  0  0  0  0  0  0  0  0  0  0  0
   12.6174   13.6396   19.6156 O   0  0  0  0  0  0  0  0  0  0  0  0
   10.8277   15.0706   20.0731 N   0  0  0  0  0  0  0  0  0  0  0  0
   10.6640   15.5457   18.7244 C   0  0  0  0  0  0  0  0  0  0  0  0
    4.2123   15.3162   25.0815 C   0  0  0  0  0  0  0  0  0  0  0  0
    3.5433   16.5465   25.1337 C   0  0  0  0  0  0  0  0  0  0  0  0
    2.3239   16.6768   25.7986 C   0  0  0  0  0  0  0  0  0  0  0  0
    1.7686   15.5882   26.4805 C   0  0  0  0  0  0  0  0  0  0  0  0
    0.5718   15.7141   27.1996 C   0  0  0  0  0  0  0  0  0  0  0  0
    0.0653   14.6367   27.9247 C   0  0  0  0  0  0  0  0  0  0  0  0
    0.7479   13.4241   27.9416 C   0  0  0  0  0  0  0  0  0  0  0  0
    1.9251   13.2766   27.2111 C   0  0  0  0  0  0  0  0  0  0  0  0
    2.4430   14.3479   26.4680 C   0  0  0  0  0  0  0  0  0  0  0  0
    3.6335   14.2183   25.7357 C   0  0  0  0  0  0  0  0  0  0  0  0
  1  2  1  0
  2  3  2  0
  3  4  1  0
  4  5  1  0
  4  6  1  0
  6  7  1  0
  6  8  2  0
  8  9  1  0
  9 10  1  0
 10 11  2  0
 10 12  1  0
 12 13  1  0
 13 14  1  6
 14 15  1  0
 15 16  1  0
 16 17  2  0
 16 18  1  0
 18 19  1  6
 18 20  1  0
 20 21  1  1
 21 22  1  0
 22 23  1  0
 23 24  2  0
 23 25  1  0
 25 26  1  0
 13 27  1  0
 27 28  2  0
 28 29  1  0
 29 30  2  0
 30 31  1  0
 31 32  2  0
 32 33  1  0
 33 34  2  0
 34 35  1  0
 35 36  2  0
  8  2  1  0
 25 20  1  0
 36 27  1  0
 35 30  1  0
M  END
>  <alias>  (108) 
None

>  <rmsd(smina/fragmenstein)>  (108) 
0.726

>  <smiles>  (108) 
Cc1nn(C)c(C)c1CC(=O)N[C@@H](CNC(=O)[C@H](Cl)[C@H]1CCC(=O)N1C)c1ccc2ccccc2c1

>  <gnina_score>  (108) 
6.604

>  <inspiration_score>  (108) 
None

>  <energy_score>  (108) 
-5.78855

>  <distance_score>  (108) 
0.473017

>  <gnina_score_min>  (108) 
6.415

>  <inchikey>  (108) 
AFWMQJTZRRXEQY-PPJWLVRDSA-N

>  <exports>  (108) 
['/opt/xchem-fragalysis-2/maxwin/BulkDock/OUTPUTS/openbind_a71ev2a_c2_elabs_1LOUU54.sdf', '/opt/xchem-fragalysis-2/maxwin/BulkDock/OUTPUTS/openbind_a71ev2a_c2_elabs_1LSYIDY.sdf']

>  <name>  (108) 
P564752

>  <ref_pdb>  (108) 
A1346a

>  <subsites>  (108) 
None

>  <HIPPO Pose ID>  (108) 
564752

>  <ref_mols>  (108) 
A1346a

>  <HIPPO Compound ID>  (108) 
406349

>  <tags>  (108) 
openbind_a71ev2a_c2_elabs,syndirella_product,openbind_a71ev2a_c2_elabs_scored,BulkDock Fragalysis export,openbind_a71ev2a_c2_elabs_scored_top80percent,openbind_a71ev2a_c2_elabs_scored_6plus,openbind_a71ev2a_c2_elabs_scored_top80percent_despaghettified,syndirella_placed

>  <smina_score_min>  (108) 
-6.79

$$$$
P564753
     RDKit          3D

 36 38  0  0  0  0  0  0  0  0999 V2000
   14.5483   12.3374   25.5967 C   0  0  0  0  0  0  0  0  0  0  0  0
   13.2549   13.0181   25.1744 C   0  0  0  0  0  0  0  0  0  0  0  0
   13.0145   12.9436   23.7692 O   0  0  0  0  0  0  0  0  0  0  0  0
   12.1241   13.8741   23.3009 C   0  0  0  0  0  0  0  0  0  0  0  0
   11.7931   14.8551   23.9419 O   0  0  0  0  0  0  0  0  0  0  0  0
   11.5653   13.4428   21.9660 C   0  0  0  0  0  0  0  0  0  0  0  0
   10.8400   14.4325   21.0545 C   0  0  0  0  0  0  0  0  0  0  0  0
    9.6691   15.1846   21.6685 C   0  0  1  0  0  0  0  0  0  0  0  0
    9.2235   16.5628   20.6366 Cl  0  0  0  0  0  0  0  0  0  0  0  0
    8.4016   14.3740   22.0860 C   0  0  0  0  0  0  0  0  0  0  0  0
    8.4127   13.2072   22.1025 O   0  0  0  0  0  0  0  0  0  0  0  0
    7.3026   15.3733   22.5271 N   0  0  0  0  0  0  0  0  0  0  0  0
    5.9455   15.1389   22.9938 C   0  0  0  0  0  0  0  0  0  0  0  0
    5.8129   15.2709   24.5250 C   0  0  2  0  0  0  0  0  0  0  0  0
    6.4329   14.2136   25.2979 N   0  0  0  0  0  0  0  0  0  0  0  0
    7.4115   14.2847   26.4900 C   0  0  0  0  0  0  0  0  0  0  0  0
    7.9327   15.2035   26.9876 O   0  0  0  0  0  0  0  0  0  0  0  0
    7.5668   12.8896   27.0817 C   0  0  0  0  0  0  0  0  0  0  0  0
    7.7218   11.7301   26.1657 C   0  0  0  0  0  0  0  0  0  0  0  0
    6.9490   10.5438   26.1510 C   0  0  0  0  0  0  0  0  0  0  0  0
    5.7888   10.2045   27.0064 C   0  0  0  0  0  0  0  0  0  0  0  0
    7.4106    9.6595   25.2652 N   0  0  0  0  0  0  0  0  0  0  0  0
    8.4381   10.2839   24.6625 N   0  0  0  0  0  0  0  0  0  0  0  0
    9.1686    9.6104   23.6095 C   0  0  0  0  0  0  0  0  0  0  0  0
    8.6878   11.5159   25.2059 C   0  0  0  0  0  0  0  0  0  0  0  0
    9.7996   12.3870   24.8070 C   0  0  0  0  0  0  0  0  0  0  0  0
    4.3696   15.4037   25.0290 C   0  0  0  0  0  0  0  0  0  0  0  0
    3.7381   16.6500   25.0276 C   0  0  0  0  0  0  0  0  0  0  0  0
    2.4829   16.8268   25.6205 C   0  0  0  0  0  0  0  0  0  0  0  0
    1.8480   15.7686   26.2852 C   0  0  0  0  0  0  0  0  0  0  0  0
    0.6305   15.9446   26.9604 C   0  0  0  0  0  0  0  0  0  0  0  0
    0.0586   14.8947   27.6787 C   0  0  0  0  0  0  0  0  0  0  0  0
    0.6939   13.6581   27.7304 C   0  0  0  0  0  0  0  0  0  0  0  0
    1.8839   13.4580   27.0357 C   0  0  0  0  0  0  0  0  0  0  0  0
    2.4683   14.5041   26.3051 C   0  0  0  0  0  0  0  0  0  0  0  0
    3.6851   14.3275   25.6301 C   0  0  0  0  0  0  0  0  0  0  0  0
  1  2  1  0
  2  3  1  0
  3  4  1  0
  4  5  2  0
  4  6  1  0
  6  7  1  0
  7  8  1  0
  8  9  1  6
  8 10  1  0
 10 11  2  0
 10 12  1  0
 12 13  1  0
 14 13  1  6
 14 15  1  0
 15 16  1  0
 16 17  2  0
 16 18  1  0
 18 19  1  0
 19 20  1  0
 20 21  1  0
 20 22  2  0
 22 23  1  0
 23 24  1  0
 23 25  1  0
 25 26  1  0
 14 27  1  0
 27 28  2  0
 28 29  1  0
 29 30  2  0
 30 31  1  0
 31 32  2  0
 32 33  1  0
 33 34  2  0
 34 35  1  0
 35 36  2  0
 25 19  2  0
 36 27  1  0
 35 30  1  0
M  END
>  <alias>  (109) 
None

>  <rmsd(smina/fragmenstein)>  (109) 
0.727

>  <smiles>  (109) 
CCOC(=O)CC[C@@H](Cl)C(=O)NC[C@H](NC(=O)Cc1c(C)nn(C)c1C)c1ccc2ccccc2c1

>  <gnina_score>  (109) 
6.517

>  <inspiration_score>  (109) 
None

>  <energy_score>  (109) 
-18.698844

>  <distance_score>  (109) 
0.537031

>  <gnina_score_min>  (109) 
6.36

>  <inchikey>  (109) 
GRSATYMHRHNEMV-RPWUZVMVSA-N

>  <exports>  (109) 
['/opt/xchem-fragalysis-2/maxwin/BulkDock/OUTPUTS/openbind_a71ev2a_c2_elabs_1LOUU54.sdf', '/opt/xchem-fragalysis-2/maxwin/BulkDock/OUTPUTS/openbind_a71ev2a_c2_elabs_1LSYIDY.sdf']

>  <name>  (109) 
P564753

>  <ref_pdb>  (109) 
A1346a

>  <subsites>  (109) 
None

>  <HIPPO Pose ID>  (109) 
564753

>  <ref_mols>  (109) 
A1346a

>  <HIPPO Compound ID>  (109) 
406350

>  <tags>  (109) 
openbind_a71ev2a_c2_elabs,syndirella_product,openbind_a71ev2a_c2_elabs_scored,BulkDock Fragalysis export,openbind_a71ev2a_c2_elabs_scored_top80percent,openbind_a71ev2a_c2_elabs_scored_6plus,openbind_a71ev2a_c2_elabs_scored_top80percent_despaghettified,syndirella_placed

>  <smina_score_min>  (109) 
-7.132

$$$$
P564757
     RDKit          3D

 36 39  0  0  0  0  0  0  0  0999 V2000
    5.8629   10.3843   26.9364 C   0  0  0  0  0  0  0  0  0  0  0  0
    6.9717   10.5359   25.9647 C   0  0  0  0  0  0  0  0  0  0  0  0
    7.3304    9.5001   25.2024 N   0  0  0  0  0  0  0  0  0  0  0  0
    8.3651    9.9531   24.4741 N   0  0  0  0  0  0  0  0  0  0  0  0
    9.0207    9.1121   23.4940 C   0  0  0  0  0  0  0  0  0  0  0  0
    8.7301   11.2167   24.8341 C   0  0  0  0  0  0  0  0  0  0  0  0
    9.9345   11.8311   24.2775 C   0  0  0  0  0  0  0  0  0  0  0  0
    7.8202   11.6579   25.7729 C   0  0  0  0  0  0  0  0  0  0  0  0
    7.8574   12.8940   26.5907 C   0  0  0  0  0  0  0  0  0  0  0  0
    7.5556   14.2724   26.0332 C   0  0  0  0  0  0  0  0  0  0  0  0
    8.2217   15.1722   26.3642 O   0  0  0  0  0  0  0  0  0  0  0  0
    6.2909   14.2365   25.1571 N   0  0  0  0  0  0  0  0  0  0  0  0
    5.5150   15.3177   24.5755 C   0  0  1  0  0  0  0  0  0  0  0  0
    5.3220   15.2945   23.0549 C   0  0  0  0  0  0  0  0  0  0  0  0
    6.5453   15.4233   22.3172 N   0  0  0  0  0  0  0  0  0  0  0  0
    7.5825   14.3608   21.9052 C   0  0  0  0  0  0  0  0  0  0  0  0
    7.5686   13.1999   22.0337 O   0  0  0  0  0  0  0  0  0  0  0  0
    8.7746   15.0272   21.1151 C   0  0  1  0  0  0  0  0  0  0  0  0
    8.6828   14.6075   19.8246 F   0  0  0  0  0  0  0  0  0  0  0  0
    8.7298   16.8180   21.0788 Cl  0  0  0  0  0  0  0  0  0  0  0  0
   10.1180   14.6664   21.6898 C   0  0  0  0  0  0  0  0  0  0  0  0
   11.2180   14.6133   20.8433 C   0  0  0  0  0  0  0  0  0  0  0  0
   12.4844   14.5647   21.3915 C   0  0  0  0  0  0  0  0  0  0  0  0
   12.6726   14.5619   22.7674 C   0  0  0  0  0  0  0  0  0  0  0  0
   11.5942   14.4798   23.6110 C   0  0  0  0  0  0  0  0  0  0  0  0
   10.3189   14.5319   23.0645 C   0  0  0  0  0  0  0  0  0  0  0  0
    4.1679   15.4254   25.2778 C   0  0  0  0  0  0  0  0  0  0  0  0
    3.5205   16.6661   25.3336 C   0  0  0  0  0  0  0  0  0  0  0  0
    2.2869   16.8009   25.9709 C   0  0  0  0  0  0  0  0  0  0  0  0
    1.6936   15.7060   26.6128 C   0  0  0  0  0  0  0  0  0  0  0  0
    0.4804   15.8316   27.3028 C   0  0  0  0  0  0  0  0  0  0  0  0
   -0.0627   14.7431   27.9846 C   0  0  0  0  0  0  0  0  0  0  0  0
    0.5977   13.5180   27.9852 C   0  0  0  0  0  0  0  0  0  0  0  0
    1.7884   13.3686   27.2795 C   0  0  0  0  0  0  0  0  0  0  0  0
    2.3433   14.4539   26.5867 C   0  0  0  0  0  0  0  0  0  0  0  0
    3.5477   14.3216   25.8863 C   0  0  0  0  0  0  0  0  0  0  0  0
  1  2  1  0
  2  3  2  0
  3  4  1  0
  4  5  1  0
  4  6  1  0
  6  7  1  0
  6  8  2  0
  8  9  1  0
  9 10  1  0
 10 11  2  0
 10 12  1  0
 12 13  1  0
 13 14  1  6
 14 15  1  0
 15 16  1  0
 16 17  2  0
 16 18  1  0
 18 19  1  6
 18 20  1  0
 18 21  1  0
 21 22  2  0
 22 23  1  0
 23 24  2  0
 24 25  1  0
 25 26  2  0
 13 27  1  0
 27 28  2  0
 28 29  1  0
 29 30  2  0
 30 31  1  0
 31 32  2  0
 32 33  1  0
 33 34  2  0
 34 35  1  0
 35 36  2  0
  8  2  1  0
 26 21  1  0
 36 27  1  0
 35 30  1  0
M  END
>  <alias>  (110) 
None

>  <rmsd(smina/fragmenstein)>  (110) 
0.725

>  <smiles>  (110) 
Cc1nn(C)c(C)c1CC(=O)N[C@@H](CNC(=O)[C@@](F)(Cl)c1ccccc1)c1ccc2ccccc2c1

>  <gnina_score>  (110) 
6.644

>  <inspiration_score>  (110) 
None

>  <energy_score>  (110) 
-25.717908

>  <distance_score>  (110) 
0.42736

>  <gnina_score_min>  (110) 
6.735

>  <inchikey>  (110) 
DKIFSVBOSMCDOC-LBNVMWSVSA-N

>  <exports>  (110) 
['/opt/xchem-fragalysis-2/maxwin/BulkDock/OUTPUTS/openbind_a71ev2a_c2_elabs_1LOUU54.sdf', '/opt/xchem-fragalysis-2/maxwin/BulkDock/OUTPUTS/openbind_a71ev2a_c2_elabs_1LSYIDY.sdf']

>  <name>  (110) 
P564757

>  <ref_pdb>  (110) 
A1346a

>  <subsites>  (110) 
None

>  <HIPPO Pose ID>  (110) 
564757

>  <ref_mols>  (110) 
A1346a

>  <HIPPO Compound ID>  (110) 
406351

>  <tags>  (110) 
openbind_a71ev2a_c2_elabs,syndirella_product,openbind_a71ev2a_c2_elabs_scored,BulkDock Fragalysis export,openbind_a71ev2a_c2_elabs_scored_top80percent,openbind_a71ev2a_c2_elabs_scored_6plus,openbind_a71ev2a_c2_elabs_scored_top80percent_despaghettified,syndirella_placed

>  <smina_score_min>  (110) 
-7.537

$$$$
P564759
     RDKit          3D

 38 41  0  0  0  0  0  0  0  0999 V2000
    5.9436   10.3528   26.9320 C   0  0  0  0  0  0  0  0  0  0  0  0
    7.0964   10.6446   26.0465 C   0  0  0  0  0  0  0  0  0  0  0  0
    7.5396    9.7092   25.2077 N   0  0  0  0  0  0  0  0  0  0  0  0
    8.5658   10.2929   24.5577 N   0  0  0  0  0  0  0  0  0  0  0  0
    9.2717    9.5475   23.5377 C   0  0  0  0  0  0  0  0  0  0  0  0
    8.8315   11.5599   25.0160 C   0  0  0  0  0  0  0  0  0  0  0  0
    9.9476   12.3984   24.5215 C   0  0  0  0  0  0  0  0  0  0  0  0
    7.8784   11.8274   25.9831 C   0  0  0  0  0  0  0  0  0  0  0  0
    7.7362   13.0210   26.8557 C   0  0  0  0  0  0  0  0  0  0  0  0
    7.5000   14.3773   26.2176 C   0  0  0  0  0  0  0  0  0  0  0  0
    8.1352   15.3064   26.5266 O   0  0  0  0  0  0  0  0  0  0  0  0
    6.2916   14.2639   25.2659 N   0  0  0  0  0  0  0  0  0  0  0  0
    5.5483   15.2876   24.5657 C   0  0  1  0  0  0  0  0  0  0  0  0
    5.5025   15.1295   23.0400 C   0  0  0  0  0  0  0  0  0  0  0  0
    6.7890   15.3717   22.4447 N   0  0  0  0  0  0  0  0  0  0  0  0
    7.9417   14.4104   22.1402 C   0  0  0  0  0  0  0  0  0  0  0  0
    8.0087   13.2546   22.2508 O   0  0  0  0  0  0  0  0  0  0  0  0
    9.1453   15.1743   21.6072 C   0  0  1  0  0  0  0  0  0  0  0  0
    8.9822   16.9655   21.5481 Cl  0  0  0  0  0  0  0  0  0  0  0  0
   10.5837   14.7521   21.8594 C   0  0  0  0  0  0  0  0  0  0  0  0
    9.9609   14.4963   20.5262 C   0  0  2  0  0  0  0  0  0  0  0  0
   10.2816   15.2399   19.3137 C   0  0  0  0  0  0  0  0  0  0  0  0
   11.3614   15.1241   18.7670 O   0  0  0  0  0  0  0  0  0  0  0  0
    9.2311   16.0277   19.0019 O   0  0  0  0  0  0  0  0  0  0  0  0
    9.2037   17.3121   18.3153 C   0  0  0  0  0  0  0  0  0  0  0  0
    8.8031   17.1165   16.9028 C   0  0  0  0  0  0  0  0  0  0  0  0
    8.2845   18.3587   18.9895 C   0  0  0  0  0  0  0  0  0  0  0  0
   10.5606   17.8294   18.4088 C   0  0  0  0  0  0  0  0  0  0  0  0
    4.1629   15.3986   25.1842 C   0  0  0  0  0  0  0  0  0  0  0  0
    3.5138   16.6376   25.2077 C   0  0  0  0  0  0  0  0  0  0  0  0
    2.2748   16.7832   25.8333 C   0  0  0  0  0  0  0  0  0  0  0  0
    1.6821   15.7027   26.5010 C   0  0  0  0  0  0  0  0  0  0  0  0
    0.4733   15.8447   27.1961 C   0  0  0  0  0  0  0  0  0  0  0  0
   -0.0622   14.7744   27.9121 C   0  0  0  0  0  0  0  0  0  0  0  0
    0.6005   13.5507   27.9409 C   0  0  0  0  0  0  0  0  0  0  0  0
    1.7847   13.3836   27.2283 C   0  0  0  0  0  0  0  0  0  0  0  0
    2.3323   14.4507   26.5022 C   0  0  0  0  0  0  0  0  0  0  0  0
    3.5366   14.3043   25.8051 C   0  0  0  0  0  0  0  0  0  0  0  0
  1  2  1  0
  2  3  2  0
  3  4  1  0
  4  5  1  0
  4  6  1  0
  6  7  1  0
  6  8  2  0
  8  9  1  0
  9 10  1  0
 10 11  2  0
 10 12  1  0
 12 13  1  0
 13 14  1  6
 14 15  1  0
 15 16  1  0
 16 17  2  0
 16 18  1  0
 18 19  1  6
 18 20  1  0
 20 21  1  0
 21 22  1  6
 22 23  2  0
 22 24  1  0
 24 25  1  0
 25 26  1  0
 25 27  1  0
 25 28  1  0
 13 29  1  0
 29 30  2  0
 30 31  1  0
 31 32  2  0
 32 33  1  0
 33 34  2  0
 34 35  1  0
 35 36  2  0
 36 37  1  0
 37 38  2  0
  8  2  1  0
 21 18  1  0
 38 29  1  0
 37 32  1  0
M  END
>  <alias>  (111) 
None

>  <rmsd(smina/fragmenstein)>  (111) 
0.271

>  <smiles>  (111) 
Cc1nn(C)c(C)c1CC(=O)N[C@@H](CNC(=O)[C@@]1(Cl)C[C@@H]1C(=O)OC(C)(C)C)c1ccc2ccccc2c1

>  <gnina_score>  (111) 
6.693

>  <inspiration_score>  (111) 
None

>  <energy_score>  (111) 
-8.119854

>  <distance_score>  (111) 
0.447647

>  <gnina_score_min>  (111) 
6.684

>  <inchikey>  (111) 
XNVRARLEJGMARX-UAABGXCFSA-N

>  <exports>  (111) 
['/opt/xchem-fragalysis-2/maxwin/BulkDock/OUTPUTS/openbind_a71ev2a_c2_elabs_1LOUU54.sdf', '/opt/xchem-fragalysis-2/maxwin/BulkDock/OUTPUTS/openbind_a71ev2a_c2_elabs_1LSYIDY.sdf']

>  <name>  (111) 
P564759

>  <ref_pdb>  (111) 
A1346a

>  <subsites>  (111) 
None

>  <HIPPO Pose ID>  (111) 
564759

>  <ref_mols>  (111) 
A1346a

>  <HIPPO Compound ID>  (111) 
406353

>  <tags>  (111) 
openbind_a71ev2a_c2_elabs,syndirella_product,openbind_a71ev2a_c2_elabs_scored,BulkDock Fragalysis export,openbind_a71ev2a_c2_elabs_scored_top80percent,openbind_a71ev2a_c2_elabs_scored_6plus,openbind_a71ev2a_c2_elabs_scored_top80percent_despaghettified,syndirella_placed

>  <smina_score_min>  (111) 
-5.068

$$$$
P569948
     RDKit          3D

 18 20  0  0  0  0  0  0  0  0999 V2000
    9.7511   15.9442   20.8640 C   0  0  0  0  0  0  0  0  0  0  0  0
   11.1947   15.7798   21.1929 C   0  0  2  0  0  0  0  0  0  0  0  0
   12.0023   14.7544   20.4539 C   0  0  0  0  0  0  0  0  0  0  0  0
   11.7303   14.5778   21.9168 C   0  0  2  0  0  0  0  0  0  0  0  0
   10.8597   13.6048   22.4256 N   0  0  0  0  0  0  0  0  0  0  0  0
    9.8603   13.6694   23.5986 C   0  0  0  0  0  0  0  0  0  0  0  0
    9.5478   14.5659   24.2781 O   0  0  0  0  0  0  0  0  0  0  0  0
    9.2806   12.3296   23.7877 C   0  0  0  0  0  0  0  0  0  0  0  0
    9.7853   11.2639   23.1403 N   0  0  0  0  0  0  0  0  0  0  0  0
    9.1012   10.2147   23.6287 N   0  0  0  0  0  0  0  0  0  0  0  0
    9.4666    8.8907   23.1793 C   0  0  0  0  0  0  0  0  0  0  0  0
    8.1349   10.5693   24.5392 C   0  0  0  0  0  0  0  0  0  0  0  0
    7.2130    9.8212   25.2794 C   0  0  0  0  0  0  0  0  0  0  0  0
    6.3421   10.5013   26.1321 C   0  0  0  0  0  0  0  0  0  0  0  0
    6.4030   11.8832   26.2375 C   0  0  0  0  0  0  0  0  0  0  0  0
    5.5822   12.5071   27.0931 F   0  0  0  0  0  0  0  0  0  0  0  0
    7.3217   12.6317   25.5040 C   0  0  0  0  0  0  0  0  0  0  0  0
    8.2091   11.9568   24.6429 C   0  0  0  0  0  0  0  0  0  0  0  0
  2  1  1  6
  2  3  1  0
  3  4  1  0
  4  5  1  6
  5  6  1  0
  6  7  2  0
  6  8  1  0
  8  9  2  0
  9 10  1  0
 10 11  1  0
 10 12  1  0
 12 13  2  0
 13 14  1  0
 14 15  2  0
 15 16  1  0
 15 17  1  0
 17 18  2  0
  4  2  1  0
 18  8  1  0
 18 12  1  0
M  END
>  <alias>  (112) 
None

>  <rmsd(smina/fragmenstein)>  (112) 
0.175

>  <smiles>  (112) 
C[C@@H]1C[C@@H]1NC(=O)c1nn(C)c2ccc(F)cc12

>  <gnina_score>  (112) 
5.486

>  <inspiration_score>  (112) 
None

>  <energy_score>  (112) 
-2.682661

>  <distance_score>  (112) 
0.373613

>  <gnina_score_min>  (112) 
5.503

>  <inchikey>  (112) 
INRUFBLIDXBGQT-XCBNKYQSSA-N

>  <exports>  (112) 
['/opt/xchem-fragalysis-2/maxwin/BulkDock/OUTPUTS/openbind_a71ev2a_c2_elabs_1LOUU54.sdf', '/opt/xchem-fragalysis-2/maxwin/BulkDock/OUTPUTS/openbind_a71ev2a_c2_elabs_1LSYIDY.sdf']

>  <name>  (112) 
P569948

>  <ref_pdb>  (112) 
A2339a

>  <subsites>  (112) 
None

>  <HIPPO Pose ID>  (112) 
569948

>  <ref_mols>  (112) 
A2339a

>  <HIPPO Compound ID>  (112) 
410968

>  <tags>  (112) 
openbind_a71ev2a_c2_elabs,syndirella_product,openbind_a71ev2a_c2_elabs_scored,BulkDock Fragalysis export,openbind_a71ev2a_c2_elabs_scored_top80percent,openbind_a71ev2a_c2_elabs_scored_top80percent_despaghettified,syndirella_placed

>  <smina_score_min>  (112) 
-7.172

$$$$
P569952
     RDKit          3D

 18 20  0  0  0  0  0  0  0  0999 V2000
    9.5911    8.9108   23.1149 C   0  0  0  0  0  0  0  0  0  0  0  0
    9.1796   10.2307   23.5379 N   0  0  0  0  0  0  0  0  0  0  0  0
    9.7798   11.3018   22.9861 N   0  0  0  0  0  0  0  0  0  0  0  0
    9.1919   12.3600   23.5691 C   0  0  0  0  0  0  0  0  0  0  0  0
    9.5623   13.7420   23.2166 C   0  0  0  0  0  0  0  0  0  0  0  0
    9.1661   14.6344   23.8605 O   0  0  0  0  0  0  0  0  0  0  0  0
   10.4380   13.7373   21.9367 N   0  0  0  0  0  0  0  0  0  0  0  0
   11.0747   14.8052   21.2513 C   0  0  0  0  0  0  0  0  0  0  0  0
   10.9931   16.1098   21.9530 C   0  0  0  0  0  0  0  0  0  0  0  0
   11.0790   14.8984   19.7489 C   0  0  0  0  0  0  0  0  0  0  0  0
   12.3292   14.5281   20.4776 C   0  0  0  0  0  0  0  0  0  0  0  0
    8.2049   11.9503   24.5107 C   0  0  0  0  0  0  0  0  0  0  0  0
    7.3017   12.5991   25.3768 C   0  0  0  0  0  0  0  0  0  0  0  0
    6.4441   11.8225   26.1543 C   0  0  0  0  0  0  0  0  0  0  0  0
    5.6078   12.4233   27.0114 F   0  0  0  0  0  0  0  0  0  0  0  0
    6.4501   10.4370   26.0797 C   0  0  0  0  0  0  0  0  0  0  0  0
    7.3411    9.7817   25.2282 C   0  0  0  0  0  0  0  0  0  0  0  0
    8.2120   10.5589   24.4568 C   0  0  0  0  0  0  0  0  0  0  0  0
  1  2  1  0
  2  3  1  0
  3  4  2  0
  4  5  1  0
  5  6  2  0
  5  7  1  0
  7  8  1  0
  8  9  1  0
  8 10  1  0
 10 11  1  0
  4 12  1  0
 12 13  2  0
 13 14  1  0
 14 15  1  0
 14 16  2  0
 16 17  1  0
 17 18  2  0
 18  2  1  0
 11  8  1  0
 18 12  1  0
M  END
>  <alias>  (113) 
None

>  <rmsd(smina/fragmenstein)>  (113) 
0.946

>  <smiles>  (113) 
Cn1nc(C(=O)NC2(C)CC2)c2cc(F)ccc21

>  <gnina_score>  (113) 
5.3

>  <inspiration_score>  (113) 
None

>  <energy_score>  (113) 
-24.335556

>  <distance_score>  (113) 
0.344333

>  <gnina_score_min>  (113) 
5.478

>  <inchikey>  (113) 
RBTZIPJRXKDHRN-UHFFFAOYSA-N

>  <exports>  (113) 
['/opt/xchem-fragalysis-2/maxwin/BulkDock/OUTPUTS/openbind_a71ev2a_c2_elabs_1LOUU54.sdf', '/opt/xchem-fragalysis-2/maxwin/BulkDock/OUTPUTS/openbind_a71ev2a_c2_elabs_1LSYIDY.sdf']

>  <name>  (113) 
P569952

>  <ref_pdb>  (113) 
A2339a

>  <subsites>  (113) 
None

>  <HIPPO Pose ID>  (113) 
569952

>  <ref_mols>  (113) 
A2339a

>  <HIPPO Compound ID>  (113) 
410969

>  <tags>  (113) 
openbind_a71ev2a_c2_elabs,syndirella_product,openbind_a71ev2a_c2_elabs_scored,BulkDock Fragalysis export,openbind_a71ev2a_c2_elabs_scored_top80percent,openbind_a71ev2a_c2_elabs_scored_top80percent_despaghettified,syndirella_placed

>  <smina_score_min>  (113) 
-7.563

$$$$
P569959
     RDKit          3D

 18 20  0  0  0  0  0  0  0  0999 V2000
    9.4545    9.0550   23.2075 C   0  0  0  0  0  0  0  0  0  0  0  0
    9.0067   10.3381   23.7054 N   0  0  0  0  0  0  0  0  0  0  0  0
    9.6025   11.4559   23.2447 N   0  0  0  0  0  0  0  0  0  0  0  0
    9.0153   12.4566   23.9314 C   0  0  0  0  0  0  0  0  0  0  0  0
    9.4293   13.8567   23.7502 C   0  0  0  0  0  0  0  0  0  0  0  0
    9.1098   14.6949   24.4946 O   0  0  0  0  0  0  0  0  0  0  0  0
   10.3233   13.9200   22.5036 N   0  0  0  0  0  0  0  0  0  0  0  0
   10.9237   15.0163   21.8674 C   0  0  2  0  0  0  0  0  0  0  0  0
   10.7161   15.3064   20.4144 C   0  0  0  0  0  0  0  0  0  0  0  0
   12.0382   14.7894   20.8910 C   0  0  1  0  0  0  0  0  0  0  0  0
   13.1070   15.7211   21.0227 O   0  0  0  0  0  0  0  0  0  0  0  0
    8.0047   11.9726   24.7957 C   0  0  0  0  0  0  0  0  0  0  0  0
    7.0871   12.5553   25.6885 C   0  0  0  0  0  0  0  0  0  0  0  0
    6.2253   11.7218   26.3936 C   0  0  0  0  0  0  0  0  0  0  0  0
    5.3729   12.2620   27.2736 F   0  0  0  0  0  0  0  0  0  0  0  0
    6.2498   10.3446   26.2285 C   0  0  0  0  0  0  0  0  0  0  0  0
    7.1581    9.7571   25.3450 C   0  0  0  0  0  0  0  0  0  0  0  0
    8.0261   10.5906   24.6350 C   0  0  0  0  0  0  0  0  0  0  0  0
  1  2  1  0
  2  3  1  0
  3  4  2  0
  4  5  1  0
  5  6  2  0
  5  7  1  0
  8  7  1  6
  8  9  1  0
  9 10  1  0
 10 11  1  1
  4 12  1  0
 12 13  2  0
 13 14  1  0
 14 15  1  0
 14 16  2  0
 16 17  1  0
 17 18  2  0
 18  2  1  0
 10  8  1  0
 18 12  1  0
M  END
>  <alias>  (114) 
None

>  <rmsd(smina/fragmenstein)>  (114) 
0.337

>  <smiles>  (114) 
Cn1nc(C(=O)N[C@@H]2C[C@H]2O)c2cc(F)ccc21

>  <gnina_score>  (114) 
5.249

>  <inspiration_score>  (114) 
None

>  <energy_score>  (114) 
-2.542878

>  <distance_score>  (114) 
0.395939

>  <gnina_score_min>  (114) 
5.175

>  <inchikey>  (114) 
LNQMTARGLJIEFN-PSASIEDQSA-N

>  <exports>  (114) 
['/opt/xchem-fragalysis-2/maxwin/BulkDock/OUTPUTS/openbind_a71ev2a_c2_elabs_1LOUU54.sdf', '/opt/xchem-fragalysis-2/maxwin/BulkDock/OUTPUTS/openbind_a71ev2a_c2_elabs_1LSYIDY.sdf']

>  <name>  (114) 
P569959

>  <ref_pdb>  (114) 
A2339a

>  <subsites>  (114) 
None

>  <HIPPO Pose ID>  (114) 
569959

>  <ref_mols>  (114) 
A2339a

>  <HIPPO Compound ID>  (114) 
410971

>  <tags>  (114) 
openbind_a71ev2a_c2_elabs,syndirella_product,openbind_a71ev2a_c2_elabs_scored,BulkDock Fragalysis export,openbind_a71ev2a_c2_elabs_scored_top80percent,openbind_a71ev2a_c2_elabs_scored_top80percent_despaghettified,syndirella_placed

>  <smina_score_min>  (114) 
-6.788

$$$$
P569968
     RDKit          3D

 19 21  0  0  0  0  0  0  0  0999 V2000
    9.4979   15.6174   20.5514 C   0  0  0  0  0  0  0  0  0  0  0  0
   10.1736   15.4133   21.8149 N   0  0  0  0  0  0  0  0  0  0  0  0
    9.7979   14.2639   22.4537 N   0  0  0  0  0  0  0  0  0  0  0  0
    9.0180   14.0579   23.7639 C   0  0  0  0  0  0  0  0  0  0  0  0
    8.6375   14.8337   24.5480 O   0  0  0  0  0  0  0  0  0  0  0  0
    8.7841   12.6123   23.9415 C   0  0  0  0  0  0  0  0  0  0  0  0
    9.4293   11.6710   23.2194 N   0  0  0  0  0  0  0  0  0  0  0  0
    8.9636   10.4991   23.7084 N   0  0  0  0  0  0  0  0  0  0  0  0
    9.5034    9.2520   23.2062 C   0  0  0  0  0  0  0  0  0  0  0  0
    7.9806   10.6588   24.6546 C   0  0  0  0  0  0  0  0  0  0  0  0
    7.1836    9.7488   25.3534 C   0  0  0  0  0  0  0  0  0  0  0  0
    6.2491   10.2529   26.2619 C   0  0  0  0  0  0  0  0  0  0  0  0
    6.1397   11.6207   26.4681 C   0  0  0  0  0  0  0  0  0  0  0  0
    5.2687   12.0841   27.3725 F   0  0  0  0  0  0  0  0  0  0  0  0
    6.9294   12.5267   25.7718 C   0  0  0  0  0  0  0  0  0  0  0  0
    7.8601   12.0304   24.8426 C   0  0  0  0  0  0  0  0  0  0  0  0
   11.6245   15.4793   21.7014 C   0  0  0  0  0  0  0  0  0  0  0  0
   12.5052   14.3742   22.2051 C   0  0  0  0  0  0  0  0  0  0  0  0
   12.3985   14.6397   20.7350 C   0  0  0  0  0  0  0  0  0  0  0  0
  1  2  1  0
  2  3  1  0
  3  4  1  0
  4  5  2  0
  4  6  1  0
  6  7  2  0
  7  8  1  0
  8  9  1  0
  8 10  1  0
 10 11  2  0
 11 12  1  0
 12 13  2  0
 13 14  1  0
 13 15  1  0
 15 16  2  0
  2 17  1  0
 17 18  1  0
 18 19  1  0
 16  6  1  0
 19 17  1  0
 16 10  1  0
M  END
>  <alias>  (115) 
None

>  <rmsd(smina/fragmenstein)>  (115) 
0.367

>  <smiles>  (115) 
CN(NC(=O)c1nn(C)c2ccc(F)cc12)C1CC1

>  <gnina_score>  (115) 
5.508

>  <inspiration_score>  (115) 
None

>  <energy_score>  (115) 
-41.148549

>  <distance_score>  (115) 
0.797303

>  <gnina_score_min>  (115) 
5.538

>  <inchikey>  (115) 
ZIAJVQRKVDHXPD-UHFFFAOYSA-N

>  <exports>  (115) 
['/opt/xchem-fragalysis-2/maxwin/BulkDock/OUTPUTS/openbind_a71ev2a_c2_elabs_1LOUU54.sdf', '/opt/xchem-fragalysis-2/maxwin/BulkDock/OUTPUTS/openbind_a71ev2a_c2_elabs_1LSYIDY.sdf']

>  <name>  (115) 
P569968

>  <ref_pdb>  (115) 
A2339a

>  <subsites>  (115) 
None

>  <HIPPO Pose ID>  (115) 
569968

>  <ref_mols>  (115) 
A2339a

>  <HIPPO Compound ID>  (115) 
410975

>  <tags>  (115) 
openbind_a71ev2a_c2_elabs,syndirella_product,openbind_a71ev2a_c2_elabs_scored,BulkDock Fragalysis export,openbind_a71ev2a_c2_elabs_scored_top80percent,openbind_a71ev2a_c2_elabs_scored_top80percent_despaghettified,syndirella_placed

>  <smina_score_min>  (115) 
-6.585

$$$$
P569970
     RDKit          3D

 19 21  0  0  0  0  0  0  0  0999 V2000
    9.5977    8.9086   23.1451 C   0  0  0  0  0  0  0  0  0  0  0  0
    9.1531   10.2230   23.5508 N   0  0  0  0  0  0  0  0  0  0  0  0
    9.7188   11.3011   22.9759 N   0  0  0  0  0  0  0  0  0  0  0  0
    9.0791   12.3500   23.5213 C   0  0  0  0  0  0  0  0  0  0  0  0
    9.3627   13.7329   23.1036 C   0  0  0  0  0  0  0  0  0  0  0  0
    8.8913   14.6272   23.6907 O   0  0  0  0  0  0  0  0  0  0  0  0
   10.3414   13.7248   21.9018 N   0  0  0  0  0  0  0  0  0  0  0  0
   11.0070   14.7984   21.2442 C   0  0  0  0  0  0  0  0  0  0  0  0
   10.9379   16.0887   21.9895 C   0  0  0  0  0  0  0  0  0  0  0  0
   11.2689   15.8511   23.2910 F   0  0  0  0  0  0  0  0  0  0  0  0
   11.0567   14.9088   19.7426 C   0  0  0  0  0  0  0  0  0  0  0  0
   12.2856   14.5251   20.5019 C   0  0  0  0  0  0  0  0  0  0  0  0
    8.1324   11.9307   24.4977 C   0  0  0  0  0  0  0  0  0  0  0  0
    7.2263   12.5702   25.3675 C   0  0  0  0  0  0  0  0  0  0  0  0
    6.3990   11.7849   26.1675 C   0  0  0  0  0  0  0  0  0  0  0  0
    5.5593   12.3777   27.0268 F   0  0  0  0  0  0  0  0  0  0  0  0
    6.4339   10.3993   26.1072 C   0  0  0  0  0  0  0  0  0  0  0  0
    7.3323    9.7541   25.2553 C   0  0  0  0  0  0  0  0  0  0  0  0
    8.1810   10.5400   24.4690 C   0  0  0  0  0  0  0  0  0  0  0  0
  1  2  1  0
  2  3  1  0
  3  4  2  0
  4  5  1  0
  5  6  2  0
  5  7  1  0
  7  8  1  0
  8  9  1  0
  9 10  1  0
  8 11  1  0
 11 12  1  0
  4 13  1  0
 13 14  2  0
 14 15  1  0
 15 16  1  0
 15 17  2  0
 17 18  1  0
 18 19  2  0
 19  2  1  0
 12  8  1  0
 19 13  1  0
M  END
>  <alias>  (116) 
None

>  <rmsd(smina/fragmenstein)>  (116) 
0.996

>  <smiles>  (116) 
Cn1nc(C(=O)NC2(CF)CC2)c2cc(F)ccc21

>  <gnina_score>  (116) 
5.523

>  <inspiration_score>  (116) 
None

>  <energy_score>  (116) 
-23.981778

>  <distance_score>  (116) 
0.396265

>  <gnina_score_min>  (116) 
5.65

>  <inchikey>  (116) 
NMCOXRJGFDTGEV-UHFFFAOYSA-N

>  <exports>  (116) 
['/opt/xchem-fragalysis-2/maxwin/BulkDock/OUTPUTS/openbind_a71ev2a_c2_elabs_1LOUU54.sdf', '/opt/xchem-fragalysis-2/maxwin/BulkDock/OUTPUTS/openbind_a71ev2a_c2_elabs_1LSYIDY.sdf']

>  <name>  (116) 
P569970

>  <ref_pdb>  (116) 
A2339a

>  <subsites>  (116) 
None

>  <HIPPO Pose ID>  (116) 
569970

>  <ref_mols>  (116) 
A2339a

>  <HIPPO Compound ID>  (116) 
410980

>  <tags>  (116) 
openbind_a71ev2a_c2_elabs,syndirella_product,openbind_a71ev2a_c2_elabs_scored,BulkDock Fragalysis export,openbind_a71ev2a_c2_elabs_scored_top80percent,openbind_a71ev2a_c2_elabs_scored_top80percent_despaghettified,syndirella_placed

>  <smina_score_min>  (116) 
-7.533

$$$$
P569972
     RDKit          3D

 19 21  0  0  0  0  0  0  0  0999 V2000
    9.5205    9.0789   23.1547 C   0  0  0  0  0  0  0  0  0  0  0  0
    9.0959   10.3649   23.6663 N   0  0  0  0  0  0  0  0  0  0  0  0
    9.7253   11.4801   23.2387 N   0  0  0  0  0  0  0  0  0  0  0  0
    9.1416   12.4805   23.9279 C   0  0  0  0  0  0  0  0  0  0  0  0
    9.5688   13.8834   23.7693 C   0  0  0  0  0  0  0  0  0  0  0  0
    9.1773   14.7194   24.4812 O   0  0  0  0  0  0  0  0  0  0  0  0
   10.4790   13.9720   22.5342 N   0  0  0  0  0  0  0  0  0  0  0  0
   11.0142   15.0957   21.8680 C   0  0  1  0  0  0  0  0  0  0  0  0
   11.8316   14.9621   20.6139 C   0  0  0  0  0  0  0  0  0  0  0  0
   10.4600   15.5170   20.5486 C   0  0  0  0  0  0  0  0  0  0  0  0
   10.2166   16.8437   20.2959 F   0  0  0  0  0  0  0  0  0  0  0  0
    9.4161   14.8030   20.0073 F   0  0  0  0  0  0  0  0  0  0  0  0
    8.1011   11.9977   24.7635 C   0  0  0  0  0  0  0  0  0  0  0  0
    7.1686   12.5779   25.6442 C   0  0  0  0  0  0  0  0  0  0  0  0
    6.2902   11.7440   26.3302 C   0  0  0  0  0  0  0  0  0  0  0  0
    5.4288   12.2822   27.2032 F   0  0  0  0  0  0  0  0  0  0  0  0
    6.3100   10.3677   26.1566 C   0  0  0  0  0  0  0  0  0  0  0  0
    7.2263    9.7819   25.2805 C   0  0  0  0  0  0  0  0  0  0  0  0
    8.1087   10.6174   24.5888 C   0  0  0  0  0  0  0  0  0  0  0  0
  1  2  1  0
  2  3  1  0
  3  4  2  0
  4  5  1  0
  5  6  2  0
  5  7  1  0
  8  7  1  6
  8  9  1  0
  9 10  1  0
 10 11  1  0
 10 12  1  0
  4 13  1  0
 13 14  2  0
 14 15  1  0
 15 16  1  0
 15 17  2  0
 17 18  1  0
 18 19  2  0
 19  2  1  0
 10  8  1  0
 19 13  1  0
M  END
>  <alias>  (117) 
None

>  <rmsd(smina/fragmenstein)>  (117) 
0.16

>  <smiles>  (117) 
Cn1nc(C(=O)N[C@H]2CC2(F)F)c2cc(F)ccc21

>  <gnina_score>  (117) 
5.357

>  <inspiration_score>  (117) 
None

>  <energy_score>  (117) 
-8.178032

>  <distance_score>  (117) 
0.379102

>  <gnina_score_min>  (117) 
5.385

>  <inchikey>  (117) 
JZJSNPWCMWUMLH-VIFPVBQESA-N

>  <exports>  (117) 
['/opt/xchem-fragalysis-2/maxwin/BulkDock/OUTPUTS/openbind_a71ev2a_c2_elabs_1LOUU54.sdf', '/opt/xchem-fragalysis-2/maxwin/BulkDock/OUTPUTS/openbind_a71ev2a_c2_elabs_1LSYIDY.sdf']

>  <name>  (117) 
P569972

>  <ref_pdb>  (117) 
A2339a

>  <subsites>  (117) 
None

>  <HIPPO Pose ID>  (117) 
569972

>  <ref_mols>  (117) 
A2339a

>  <HIPPO Compound ID>  (117) 
410981

>  <tags>  (117) 
openbind_a71ev2a_c2_elabs,syndirella_product,openbind_a71ev2a_c2_elabs_scored,BulkDock Fragalysis export,openbind_a71ev2a_c2_elabs_scored_top80percent,openbind_a71ev2a_c2_elabs_scored_top80percent_despaghettified,syndirella_placed

>  <smina_score_min>  (117) 
-7.502

$$$$
P569977
     RDKit          3D

 19 21  0  0  0  0  0  0  0  0999 V2000
    9.5451    8.8549   23.1045 C   0  0  0  0  0  0  0  0  0  0  0  0
    9.2073   10.1719   23.5935 N   0  0  0  0  0  0  0  0  0  0  0  0
    9.8851   11.2293   23.1094 N   0  0  0  0  0  0  0  0  0  0  0  0
    9.4175   12.2750   23.8094 C   0  0  0  0  0  0  0  0  0  0  0  0
    9.9058   13.6379   23.5813 C   0  0  0  0  0  0  0  0  0  0  0  0
    9.8504   14.4505   24.4189 O   0  0  0  0  0  0  0  0  0  0  0  0
   10.3508   13.7490   22.1061 N   0  0  0  0  0  0  0  0  0  0  0  0
   10.7238   14.8824   21.3391 C   0  0  0  0  0  0  0  0  0  0  0  0
    9.5932   15.8340   20.9479 C   0  0  0  0  0  0  0  0  0  0  0  0
    8.0173   15.5274   21.7953 S   0  0  0  0  0  0  0  0  0  0  0  0
   11.8321   14.7351   20.3123 C   0  0  0  0  0  0  0  0  0  0  0  0
   12.0832   15.4793   21.5765 C   0  0  0  0  0  0  0  0  0  0  0  0
    8.3386   11.8967   24.6534 C   0  0  0  0  0  0  0  0  0  0  0  0
    7.4328   12.5702   25.4970 C   0  0  0  0  0  0  0  0  0  0  0  0
    6.4868   11.8210   26.1939 C   0  0  0  0  0  0  0  0  0  0  0  0
    5.6470   12.4397   27.0347 F   0  0  0  0  0  0  0  0  0  0  0  0
    6.4176   10.4409   26.0670 C   0  0  0  0  0  0  0  0  0  0  0  0
    7.2997    9.7658   25.2208 C   0  0  0  0  0  0  0  0  0  0  0  0
    8.2411   10.5160   24.5094 C   0  0  0  0  0  0  0  0  0  0  0  0
  1  2  1  0
  2  3  1  0
  3  4  2  0
  4  5  1  0
  5  6  2  0
  5  7  1  0
  7  8  1  0
  8  9  1  0
  9 10  1  0
  8 11  1  0
 11 12  1  0
  4 13  1  0
 13 14  2  0
 14 15  1  0
 15 16  1  0
 15 17  2  0
 17 18  1  0
 18 19  2  0
 19  2  1  0
 12  8  1  0
 19 13  1  0
M  END
>  <alias>  (118) 
None

>  <rmsd(smina/fragmenstein)>  (118) 
0.505

>  <smiles>  (118) 
Cn1nc(C(=O)NC2(CS)CC2)c2cc(F)ccc21

>  <gnina_score>  (118) 
5.848

>  <inspiration_score>  (118) 
None

>  <energy_score>  (118) 
-32.440496

>  <distance_score>  (118) 
0.508113

>  <gnina_score_min>  (118) 
5.83

>  <inchikey>  (118) 
YDPMHMTWGBLYPF-UHFFFAOYSA-N

>  <exports>  (118) 
['/opt/xchem-fragalysis-2/maxwin/BulkDock/OUTPUTS/openbind_a71ev2a_c2_elabs_1LOUU54.sdf', '/opt/xchem-fragalysis-2/maxwin/BulkDock/OUTPUTS/openbind_a71ev2a_c2_elabs_1LSYIDY.sdf']

>  <name>  (118) 
P569977

>  <ref_pdb>  (118) 
A2339a

>  <subsites>  (118) 
None

>  <HIPPO Pose ID>  (118) 
569977

>  <ref_mols>  (118) 
A2339a

>  <HIPPO Compound ID>  (118) 
410983

>  <tags>  (118) 
openbind_a71ev2a_c2_elabs,syndirella_product,openbind_a71ev2a_c2_elabs_scored,BulkDock Fragalysis export,openbind_a71ev2a_c2_elabs_scored_top80percent,openbind_a71ev2a_c2_elabs_scored_top80percent_despaghettified,syndirella_placed

>  <smina_score_min>  (118) 
-6.891

$$$$
P569982
     RDKit          3D

 19 21  0  0  0  0  0  0  0  0999 V2000
    9.4632    8.7159   23.3488 C   0  0  0  0  0  0  0  0  0  0  0  0
    8.9411   10.0208   23.6767 N   0  0  0  0  0  0  0  0  0  0  0  0
    9.4566   11.0910   23.0396 N   0  0  0  0  0  0  0  0  0  0  0  0
    8.7568   12.1227   23.5368 C   0  0  0  0  0  0  0  0  0  0  0  0
    8.9967   13.4932   23.1237 C   0  0  0  0  0  0  0  0  0  0  0  0
    8.3347   14.3506   23.5498 O   0  0  0  0  0  0  0  0  0  0  0  0
   10.2298   13.5477   22.2107 N   0  0  0  0  0  0  0  0  0  0  0  0
   10.9463   14.6399   21.7202 C   0  0  0  0  0  0  0  0  0  0  0  0
   11.2036   15.3900   22.9136 C   0  0  0  0  0  0  0  0  0  0  0  0
   11.2145   15.6655   24.0416 N   0  0  0  0  0  0  0  0  0  0  0  0
   10.5829   15.3276   20.4412 C   0  0  0  0  0  0  0  0  0  0  0  0
   11.9308   14.6761   20.5994 C   0  0  0  0  0  0  0  0  0  0  0  0
    7.8722   11.7309   24.5672 C   0  0  0  0  0  0  0  0  0  0  0  0
    7.0000   12.3946   25.4533 C   0  0  0  0  0  0  0  0  0  0  0  0
    6.2114   11.6337   26.3066 C   0  0  0  0  0  0  0  0  0  0  0  0
    5.3999   12.2498   27.1753 F   0  0  0  0  0  0  0  0  0  0  0  0
    6.2560   10.2505   26.2798 C   0  0  0  0  0  0  0  0  0  0  0  0
    7.1408    9.5932   25.4211 C   0  0  0  0  0  0  0  0  0  0  0  0
    7.9668   10.3485   24.5911 C   0  0  0  0  0  0  0  0  0  0  0  0
  1  2  1  0
  2  3  1  0
  3  4  2  0
  4  5  1  0
  5  6  2  0
  5  7  1  0
  7  8  1  0
  8  9  1  0
  9 10  3  0
  8 11  1  0
 11 12  1  0
  4 13  1  0
 13 14  2  0
 14 15  1  0
 15 16  1  0
 15 17  2  0
 17 18  1  0
 18 19  2  0
 19  2  1  0
 12  8  1  0
 19 13  1  0
M  END
>  <alias>  (119) 
None

>  <rmsd(smina/fragmenstein)>  (119) 
1.053

>  <smiles>  (119) 
Cn1nc(C(=O)NC2(C#N)CC2)c2cc(F)ccc21

>  <gnina_score>  (119) 
5.618

>  <inspiration_score>  (119) 
None

>  <energy_score>  (119) 
-9.472678

>  <distance_score>  (119) 
0.493532

>  <gnina_score_min>  (119) 
5.605

>  <inchikey>  (119) 
HYCVBFQVASRFAH-UHFFFAOYSA-N

>  <exports>  (119) 
['/opt/xchem-fragalysis-2/maxwin/BulkDock/OUTPUTS/openbind_a71ev2a_c2_elabs_1LOUU54.sdf', '/opt/xchem-fragalysis-2/maxwin/BulkDock/OUTPUTS/openbind_a71ev2a_c2_elabs_1LSYIDY.sdf']

>  <name>  (119) 
P569982

>  <ref_pdb>  (119) 
A2339a

>  <subsites>  (119) 
None

>  <HIPPO Pose ID>  (119) 
569982

>  <ref_mols>  (119) 
A2339a

>  <HIPPO Compound ID>  (119) 
410984

>  <tags>  (119) 
openbind_a71ev2a_c2_elabs,syndirella_product,openbind_a71ev2a_c2_elabs_scored,BulkDock Fragalysis export,openbind_a71ev2a_c2_elabs_scored_top80percent,openbind_a71ev2a_c2_elabs_scored_top80percent_despaghettified,syndirella_placed

>  <smina_score_min>  (119) 
-7.149

$$$$
P569983
     RDKit          3D

 19 21  0  0  0  0  0  0  0  0999 V2000
    9.5448    8.9417   23.1594 C   0  0  0  0  0  0  0  0  0  0  0  0
    9.1482   10.2558   23.6136 N   0  0  0  0  0  0  0  0  0  0  0  0
    9.7757   11.3306   23.1004 N   0  0  0  0  0  0  0  0  0  0  0  0
    9.2011   12.3824   23.7109 C   0  0  0  0  0  0  0  0  0  0  0  0
    9.5636   13.7673   23.3631 C   0  0  0  0  0  0  0  0  0  0  0  0
    9.2106   14.6631   24.0244 O   0  0  0  0  0  0  0  0  0  0  0  0
   10.3274   13.7539   22.0230 N   0  0  0  0  0  0  0  0  0  0  0  0
   10.7281   14.8220   21.1799 C   0  0  0  0  0  0  0  0  0  0  0  0
    9.5991   15.6451   20.5790 C   0  0  0  0  0  0  0  0  0  0  0  0
    8.3723   15.4185   21.2708 O   0  0  0  0  0  0  0  0  0  0  0  0
   12.0179   15.5131   21.5284 C   0  0  0  0  0  0  0  0  0  0  0  0
   11.9478   14.6730   20.2994 C   0  0  0  0  0  0  0  0  0  0  0  0
    8.1938   11.9658   24.6242 C   0  0  0  0  0  0  0  0  0  0  0  0
    7.2812   12.6095   25.4831 C   0  0  0  0  0  0  0  0  0  0  0  0
    6.3972   11.8296   26.2261 C   0  0  0  0  0  0  0  0  0  0  0  0
    5.5538   12.4264   27.0791 F   0  0  0  0  0  0  0  0  0  0  0  0
    6.3859   10.4463   26.1225 C   0  0  0  0  0  0  0  0  0  0  0  0
    7.2815    9.7967   25.2710 C   0  0  0  0  0  0  0  0  0  0  0  0
    8.1773   10.5765   24.5318 C   0  0  0  0  0  0  0  0  0  0  0  0
  1  2  1  0
  2  3  1  0
  3  4  2  0
  4  5  1  0
  5  6  2  0
  5  7  1  0
  7  8  1  0
  8  9  1  0
  9 10  1  0
  8 11  1  0
 11 12  1  0
  4 13  1  0
 13 14  2  0
 14 15  1  0
 15 16  1  0
 15 17  2  0
 17 18  1  0
 18 19  2  0
 19  2  1  0
 12  8  1  0
 19 13  1  0
M  END
>  <alias>  (120) 
None

>  <rmsd(smina/fragmenstein)>  (120) 
0.415

>  <smiles>  (120) 
Cn1nc(C(=O)NC2(CO)CC2)c2cc(F)ccc21

>  <gnina_score>  (120) 
5.403

>  <inspiration_score>  (120) 
None

>  <energy_score>  (120) 
-26.21337

>  <distance_score>  (120) 
0.509522

>  <gnina_score_min>  (120) 
5.376

>  <inchikey>  (120) 
QEQAJKPZAWRNNG-UHFFFAOYSA-N

>  <exports>  (120) 
['/opt/xchem-fragalysis-2/maxwin/BulkDock/OUTPUTS/openbind_a71ev2a_c2_elabs_1LOUU54.sdf', '/opt/xchem-fragalysis-2/maxwin/BulkDock/OUTPUTS/openbind_a71ev2a_c2_elabs_1LSYIDY.sdf']

>  <name>  (120) 
P569983

>  <ref_pdb>  (120) 
A2339a

>  <subsites>  (120) 
None

>  <HIPPO Pose ID>  (120) 
569983

>  <ref_mols>  (120) 
A2339a

>  <HIPPO Compound ID>  (120) 
410986

>  <tags>  (120) 
openbind_a71ev2a_c2_elabs,syndirella_product,openbind_a71ev2a_c2_elabs_scored,BulkDock Fragalysis export,openbind_a71ev2a_c2_elabs_scored_top80percent,openbind_a71ev2a_c2_elabs_scored_top80percent_despaghettified,syndirella_placed

>  <smina_score_min>  (120) 
-7.194

$$$$
P569985
     RDKit          3D

 19 21  0  0  0  0  0  0  0  0999 V2000
    9.5542    9.1522   23.1444 C   0  0  0  0  0  0  0  0  0  0  0  0
    9.1089   10.4127   23.7024 N   0  0  0  0  0  0  0  0  0  0  0  0
    9.7348   11.5530   23.3385 N   0  0  0  0  0  0  0  0  0  0  0  0
    9.1397   12.5130   24.0747 C   0  0  0  0  0  0  0  0  0  0  0  0
    9.5439   13.9299   23.9986 C   0  0  0  0  0  0  0  0  0  0  0  0
    9.1217   14.7197   24.7445 O   0  0  0  0  0  0  0  0  0  0  0  0
   10.4556   14.1031   22.7763 N   0  0  0  0  0  0  0  0  0  0  0  0
   10.9554   15.2684   22.1663 C   0  0  1  0  0  0  0  0  0  0  0  0
   11.7341   15.2605   20.8902 C   0  0  0  0  0  0  0  0  0  0  0  0
   10.2870   15.7156   20.8813 C   0  0  0  0  0  0  0  0  0  0  0  0
    9.2780   14.8098   20.2715 C   0  0  0  0  0  0  0  0  0  0  0  0
    9.8921   17.1500   20.7120 C   0  0  0  0  0  0  0  0  0  0  0  0
    8.0784   11.9852   24.8533 C   0  0  0  0  0  0  0  0  0  0  0  0
    7.1182   12.5209   25.7315 C   0  0  0  0  0  0  0  0  0  0  0  0
    6.2411   11.6508   26.3697 C   0  0  0  0  0  0  0  0  0  0  0  0
    5.3547   12.1460   27.2423 F   0  0  0  0  0  0  0  0  0  0  0  0
    6.2897   10.2811   26.1517 C   0  0  0  0  0  0  0  0  0  0  0  0
    7.2280    9.7412   25.2688 C   0  0  0  0  0  0  0  0  0  0  0  0
    8.1050   10.6148   24.6200 C   0  0  0  0  0  0  0  0  0  0  0  0
  1  2  1  0
  2  3  1  0
  3  4  2  0
  4  5  1  0
  5  6  2  0
  5  7  1  0
  8  7  1  6
  8  9  1  0
  9 10  1  0
 10 11  1  0
 10 12  1  0
  4 13  1  0
 13 14  2  0
 14 15  1  0
 15 16  1  0
 15 17  2  0
 17 18  1  0
 18 19  2  0
 19  2  1  0
 10  8  1  0
 19 13  1  0
M  END
>  <alias>  (121) 
None

>  <rmsd(smina/fragmenstein)>  (121) 
0.216

>  <smiles>  (121) 
Cn1nc(C(=O)N[C@H]2CC2(C)C)c2cc(F)ccc21

>  <gnina_score>  (121) 
5.47

>  <inspiration_score>  (121) 
None

>  <energy_score>  (121) 
-28.182801

>  <distance_score>  (121) 
0.545411

>  <gnina_score_min>  (121) 
5.516

>  <inchikey>  (121) 
YREHDGSZZBRRBR-NSHDSACASA-N

>  <exports>  (121) 
['/opt/xchem-fragalysis-2/maxwin/BulkDock/OUTPUTS/openbind_a71ev2a_c2_elabs_1LOUU54.sdf', '/opt/xchem-fragalysis-2/maxwin/BulkDock/OUTPUTS/openbind_a71ev2a_c2_elabs_1LSYIDY.sdf']

>  <name>  (121) 
P569985

>  <ref_pdb>  (121) 
A2339a

>  <subsites>  (121) 
None

>  <HIPPO Pose ID>  (121) 
569985

>  <ref_mols>  (121) 
A2339a

>  <HIPPO Compound ID>  (121) 
410987

>  <tags>  (121) 
openbind_a71ev2a_c2_elabs,syndirella_product,openbind_a71ev2a_c2_elabs_scored,BulkDock Fragalysis export,openbind_a71ev2a_c2_elabs_scored_top80percent,openbind_a71ev2a_c2_elabs_scored_top80percent_despaghettified,syndirella_placed

>  <smina_score_min>  (121) 
-7.102

$$$$
P569986
     RDKit          3D

 19 21  0  0  0  0  0  0  0  0999 V2000
   10.1778   15.9683   19.2884 C   0  0  0  0  0  0  0  0  0  0  0  0
   10.1832   14.6883   20.0681 C   0  0  0  0  0  0  0  0  0  0  0  0
   10.8872   14.6524   21.3896 C   0  0  0  0  0  0  0  0  0  0  0  0
   10.3914   13.6298   22.2289 N   0  0  0  0  0  0  0  0  0  0  0  0
    9.4638   13.7041   23.4551 C   0  0  0  0  0  0  0  0  0  0  0  0
    9.0227   14.6277   24.0149 O   0  0  0  0  0  0  0  0  0  0  0  0
    9.0865   12.3291   23.8100 C   0  0  0  0  0  0  0  0  0  0  0  0
    9.6643   11.2755   23.2034 N   0  0  0  0  0  0  0  0  0  0  0  0
    9.0474   10.2024   23.7267 N   0  0  0  0  0  0  0  0  0  0  0  0
    9.4842    8.8911   23.3029 C   0  0  0  0  0  0  0  0  0  0  0  0
    8.0636   10.5290   24.6299 C   0  0  0  0  0  0  0  0  0  0  0  0
    7.1644    9.7580   25.3720 C   0  0  0  0  0  0  0  0  0  0  0  0
    6.2723   10.4131   26.2230 C   0  0  0  0  0  0  0  0  0  0  0  0
    6.2848   11.7967   26.3180 C   0  0  0  0  0  0  0  0  0  0  0  0
    5.4434   12.3995   27.1676 F   0  0  0  0  0  0  0  0  0  0  0  0
    7.1665   12.5707   25.5691 C   0  0  0  0  0  0  0  0  0  0  0  0
    8.0766   11.9191   24.7152 C   0  0  0  0  0  0  0  0  0  0  0  0
   12.3661   14.9335   21.4300 C   0  0  0  0  0  0  0  0  0  0  0  0
   11.3984   15.9145   21.9996 C   0  0  0  0  0  0  0  0  0  0  0  0
  1  2  1  0
  2  3  1  0
  3  4  1  0
  4  5  1  0
  5  6  2  0
  5  7  1  0
  7  8  2  0
  8  9  1  0
  9 10  1  0
  9 11  1  0
 11 12  2  0
 12 13  1  0
 13 14  2  0
 14 15  1  0
 14 16  1  0
 16 17  2  0
  3 18  1  0
 18 19  1  0
 19  3  1  0
 17  7  1  0
 17 11  1  0
M  END
>  <alias>  (122) 
None

>  <rmsd(smina/fragmenstein)>  (122) 
0.699

>  <smiles>  (122) 
CCC1(NC(=O)c2nn(C)c3ccc(F)cc23)CC1

>  <gnina_score>  (122) 
5.548

>  <inspiration_score>  (122) 
None

>  <energy_score>  (122) 
-36.690778

>  <distance_score>  (122) 
0.569327

>  <gnina_score_min>  (122) 
5.653

>  <inchikey>  (122) 
MWFXERPIDTWLJA-UHFFFAOYSA-N

>  <exports>  (122) 
['/opt/xchem-fragalysis-2/maxwin/BulkDock/OUTPUTS/openbind_a71ev2a_c2_elabs_1LOUU54.sdf', '/opt/xchem-fragalysis-2/maxwin/BulkDock/OUTPUTS/openbind_a71ev2a_c2_elabs_1LSYIDY.sdf']

>  <name>  (122) 
P569986

>  <ref_pdb>  (122) 
A2339a

>  <subsites>  (122) 
None

>  <HIPPO Pose ID>  (122) 
569986

>  <ref_mols>  (122) 
A2339a

>  <HIPPO Compound ID>  (122) 
410988

>  <tags>  (122) 
openbind_a71ev2a_c2_elabs,syndirella_product,openbind_a71ev2a_c2_elabs_scored,BulkDock Fragalysis export,openbind_a71ev2a_c2_elabs_scored_top80percent,openbind_a71ev2a_c2_elabs_scored_top80percent_despaghettified,syndirella_placed

>  <smina_score_min>  (122) 
-7.278

$$$$
P569991
     RDKit          3D

 19 21  0  0  0  0  0  0  0  0999 V2000
   11.2471   15.3312   24.8069 C   0  0  0  0  0  0  0  0  0  0  0  0
   11.2685   15.2146   23.6084 C   0  0  0  0  0  0  0  0  0  0  0  0
   10.9843   14.6776   22.3093 C   0  0  0  0  0  0  0  0  0  0  0  0
   10.1821   13.6007   22.6417 N   0  0  0  0  0  0  0  0  0  0  0  0
    8.8776   13.5422   23.4342 C   0  0  0  0  0  0  0  0  0  0  0  0
    8.2218   14.3973   23.8717 O   0  0  0  0  0  0  0  0  0  0  0  0
    8.5662   12.1538   23.6901 C   0  0  0  0  0  0  0  0  0  0  0  0
    9.2870   11.1494   23.1643 N   0  0  0  0  0  0  0  0  0  0  0  0
    8.7907   10.0512   23.7630 N   0  0  0  0  0  0  0  0  0  0  0  0
    9.3612    8.7705   23.4161 C   0  0  0  0  0  0  0  0  0  0  0  0
    7.8068   10.3381   24.6818 C   0  0  0  0  0  0  0  0  0  0  0  0
    7.0097    9.5536   25.5082 C   0  0  0  0  0  0  0  0  0  0  0  0
    6.1237   10.1744   26.3928 C   0  0  0  0  0  0  0  0  0  0  0  0
    6.0467   11.5550   26.4447 C   0  0  0  0  0  0  0  0  0  0  0  0
    5.2377   12.1401   27.3352 F   0  0  0  0  0  0  0  0  0  0  0  0
    6.8044   12.3470   25.5966 C   0  0  0  0  0  0  0  0  0  0  0  0
    7.6746   11.7168   24.6871 C   0  0  0  0  0  0  0  0  0  0  0  0
   11.9773   14.7472   21.2011 C   0  0  0  0  0  0  0  0  0  0  0  0
   10.7063   15.5494   21.1289 C   0  0  0  0  0  0  0  0  0  0  0  0
  1  2  3  0
  2  3  1  0
  3  4  1  0
  4  5  1  0
  5  6  2  0
  5  7  1  0
  7  8  2  0
  8  9  1  0
  9 10  1  0
  9 11  1  0
 11 12  2  0
 12 13  1  0
 13 14  2  0
 14 15  1  0
 14 16  1  0
 16 17  2  0
  3 18  1  0
 18 19  1  0
 19  3  1  0
 17  7  1  0
 17 11  1  0
M  END
>  <alias>  (123) 
None

>  <rmsd(smina/fragmenstein)>  (123) 
0.674

>  <smiles>  (123) 
C#CC1(NC(=O)c2nn(C)c3ccc(F)cc23)CC1

>  <gnina_score>  (123) 
5.554

>  <inspiration_score>  (123) 
None

>  <energy_score>  (123) 
-11.124479

>  <distance_score>  (123) 
0.660704

>  <gnina_score_min>  (123) 
5.206

>  <inchikey>  (123) 
RKHYZRAPQYAOQF-UHFFFAOYSA-N

>  <exports>  (123) 
['/opt/xchem-fragalysis-2/maxwin/BulkDock/OUTPUTS/openbind_a71ev2a_c2_elabs_1LOUU54.sdf', '/opt/xchem-fragalysis-2/maxwin/BulkDock/OUTPUTS/openbind_a71ev2a_c2_elabs_1LSYIDY.sdf']

>  <name>  (123) 
P569991

>  <ref_pdb>  (123) 
A2339a

>  <subsites>  (123) 
None

>  <HIPPO Pose ID>  (123) 
569991

>  <ref_mols>  (123) 
A2339a

>  <HIPPO Compound ID>  (123) 
410990

>  <tags>  (123) 
openbind_a71ev2a_c2_elabs,syndirella_product,openbind_a71ev2a_c2_elabs_scored,BulkDock Fragalysis export,openbind_a71ev2a_c2_elabs_scored_top80percent,openbind_a71ev2a_c2_elabs_scored_top80percent_despaghettified,syndirella_placed

>  <smina_score_min>  (123) 
-5.236

$$$$
P569993
     RDKit          3D

 19 21  0  0  0  0  0  0  0  0999 V2000
    9.7018   16.9883   20.5227 C   0  0  0  0  0  0  0  0  0  0  0  0
    9.8941   15.5187   20.4440 C   0  0  1  0  0  0  0  0  0  0  0  0
   11.0357   14.8686   19.7248 C   0  0  0  0  0  0  0  0  0  0  0  0
   10.9916   14.8046   21.2256 C   0  0  1  0  0  0  0  0  0  0  0  0
   12.0877   15.5501   21.9085 C   0  0  0  0  0  0  0  0  0  0  0  0
   10.5095   13.7206   21.9975 N   0  0  0  0  0  0  0  0  0  0  0  0
    9.7246   13.7072   23.3295 C   0  0  0  0  0  0  0  0  0  0  0  0
    9.4200   14.5851   24.0377 O   0  0  0  0  0  0  0  0  0  0  0  0
    9.2832   12.3345   23.6274 C   0  0  0  0  0  0  0  0  0  0  0  0
    9.8235   11.2713   23.0099 N   0  0  0  0  0  0  0  0  0  0  0  0
    9.1939   10.2095   23.5447 N   0  0  0  0  0  0  0  0  0  0  0  0
    9.5805    8.8863   23.1101 C   0  0  0  0  0  0  0  0  0  0  0  0
    8.2277   10.5505   24.4605 C   0  0  0  0  0  0  0  0  0  0  0  0
    7.3331    9.7866   25.2180 C   0  0  0  0  0  0  0  0  0  0  0  0
    6.4490   10.4547   26.0669 C   0  0  0  0  0  0  0  0  0  0  0  0
    6.4728   11.8394   26.1529 C   0  0  0  0  0  0  0  0  0  0  0  0
    5.6388   12.4510   27.0046 F   0  0  0  0  0  0  0  0  0  0  0  0
    7.3611   12.6028   25.3968 C   0  0  0  0  0  0  0  0  0  0  0  0
    8.2605   11.9406   24.5369 C   0  0  0  0  0  0  0  0  0  0  0  0
  2  1  1  1
  2  3  1  0
  3  4  1  0
  4  5  1  1
  4  6  1  0
  6  7  1  0
  7  8  2  0
  7  9  1  0
  9 10  2  0
 10 11  1  0
 11 12  1  0
 11 13  1  0
 13 14  2  0
 14 15  1  0
 15 16  2  0
 16 17  1  0
 16 18  1  0
 18 19  2  0
  4  2  1  0
 19  9  1  0
 19 13  1  0
M  END
>  <alias>  (124) 
None

>  <rmsd(smina/fragmenstein)>  (124) 
0.654

>  <smiles>  (124) 
C[C@H]1C[C@]1(C)NC(=O)c1nn(C)c2ccc(F)cc12

>  <gnina_score>  (124) 
5.652

>  <inspiration_score>  (124) 
None

>  <energy_score>  (124) 
-35.651502

>  <distance_score>  (124) 
0.457001

>  <gnina_score_min>  (124) 
5.633

>  <inchikey>  (124) 
KXQJQBMVIOSBOJ-RTHLEPHNSA-N

>  <exports>  (124) 
['/opt/xchem-fragalysis-2/maxwin/BulkDock/OUTPUTS/openbind_a71ev2a_c2_elabs_1LOUU54.sdf', '/opt/xchem-fragalysis-2/maxwin/BulkDock/OUTPUTS/openbind_a71ev2a_c2_elabs_1LSYIDY.sdf']

>  <name>  (124) 
P569993

>  <ref_pdb>  (124) 
A2339a

>  <subsites>  (124) 
None

>  <HIPPO Pose ID>  (124) 
569993

>  <ref_mols>  (124) 
A2339a

>  <HIPPO Compound ID>  (124) 
410991

>  <tags>  (124) 
openbind_a71ev2a_c2_elabs,syndirella_product,openbind_a71ev2a_c2_elabs_scored,BulkDock Fragalysis export,openbind_a71ev2a_c2_elabs_scored_top80percent,openbind_a71ev2a_c2_elabs_scored_top80percent_despaghettified,syndirella_placed

>  <smina_score_min>  (124) 
-7.765

$$$$
P570001
     RDKit          3D

 19 22  0  0  0  0  0  0  0  0999 V2000
    9.5395    9.0479   23.1306 C   0  0  0  0  0  0  0  0  0  0  0  0
    9.1148   10.3292   23.6532 N   0  0  0  0  0  0  0  0  0  0  0  0
    9.7550   11.4453   23.2470 N   0  0  0  0  0  0  0  0  0  0  0  0
    9.1877   12.4355   23.9620 C   0  0  0  0  0  0  0  0  0  0  0  0
    9.6695   13.8246   23.8910 C   0  0  0  0  0  0  0  0  0  0  0  0
    9.3353   14.6139   24.6814 O   0  0  0  0  0  0  0  0  0  0  0  0
   10.5899   13.9666   22.6689 N   0  0  0  0  0  0  0  0  0  0  0  0
   11.2040   15.1003   22.1177 C   0  0  1  0  0  0  0  0  0  0  0  0
   12.0594   15.1038   20.8596 C   0  0  0  0  0  0  0  0  0  0  0  0
   10.6986   15.6145   20.8460 C   0  0  0  0  0  0  0  0  0  0  0  0
    9.8378   16.7372   20.4996 C   0  0  0  0  0  0  0  0  0  0  0  0
    9.5275   15.3195   20.0318 C   0  0  0  0  0  0  0  0  0  0  0  0
    8.1204   11.9535   24.7632 C   0  0  0  0  0  0  0  0  0  0  0  0
    7.1842   12.5303   25.6427 C   0  0  0  0  0  0  0  0  0  0  0  0
    6.2981   11.6941   26.3149 C   0  0  0  0  0  0  0  0  0  0  0  0
    5.4319   12.2266   27.1865 F   0  0  0  0  0  0  0  0  0  0  0  0
    6.3183   10.3186   26.1330 C   0  0  0  0  0  0  0  0  0  0  0  0
    7.2372    9.7379   25.2559 C   0  0  0  0  0  0  0  0  0  0  0  0
    8.1212   10.5763   24.5710 C   0  0  0  0  0  0  0  0  0  0  0  0
  1  2  1  0
  2  3  1  0
  3  4  2  0
  4  5  1  0
  5  6  2  0
  5  7  1  0
  8  7  1  6
  8  9  1  0
  9 10  1  0
 10 11  1  0
 11 12  1  0
  4 13  1  0
 13 14  2  0
 14 15  1  0
 15 16  1  0
 15 17  2  0
 17 18  1  0
 18 19  2  0
 19  2  1  0
 10  8  1  0
 19 13  1  0
 12 10  1  0
M  END
>  <alias>  (125) 
None

>  <rmsd(smina/fragmenstein)>  (125) 
0.255

>  <smiles>  (125) 
Cn1nc(C(=O)N[C@H]2CC23CC3)c2cc(F)ccc21

>  <gnina_score>  (125) 
5.539

>  <inspiration_score>  (125) 
None

>  <energy_score>  (125) 
-8.809325

>  <distance_score>  (125) 
0.410074

>  <gnina_score_min>  (125) 
5.549

>  <inchikey>  (125) 
LFQYPDBDYSZGSV-NSHDSACASA-N

>  <exports>  (125) 
['/opt/xchem-fragalysis-2/maxwin/BulkDock/OUTPUTS/openbind_a71ev2a_c2_elabs_1LOUU54.sdf', '/opt/xchem-fragalysis-2/maxwin/BulkDock/OUTPUTS/openbind_a71ev2a_c2_elabs_1LSYIDY.sdf']

>  <name>  (125) 
P570001

>  <ref_pdb>  (125) 
A2339a

>  <subsites>  (125) 
None

>  <HIPPO Pose ID>  (125) 
570001

>  <ref_mols>  (125) 
A2339a

>  <HIPPO Compound ID>  (125) 
410993

>  <tags>  (125) 
openbind_a71ev2a_c2_elabs,syndirella_product,openbind_a71ev2a_c2_elabs_scored,BulkDock Fragalysis export,openbind_a71ev2a_c2_elabs_scored_top80percent,openbind_a71ev2a_c2_elabs_scored_top80percent_despaghettified,syndirella_placed

>  <smina_score_min>  (125) 
-7.815

$$$$
P570004
     RDKit          3D

 20 22  0  0  0  0  0  0  0  0999 V2000
    8.7180   14.4382   21.2357 C   0  0  0  0  0  0  0  0  0  0  0  0
   10.0092   13.8696   21.8622 N   0  0  0  0  0  0  0  0  0  0  0  0
    9.8572   13.7464   23.2834 C   0  0  0  0  0  0  0  0  0  0  0  0
   10.1084   14.5251   24.1695 O   0  0  0  0  0  0  0  0  0  0  0  0
    9.3270   12.4087   23.6210 C   0  0  0  0  0  0  0  0  0  0  0  0
    9.8186   11.2969   23.0534 N   0  0  0  0  0  0  0  0  0  0  0  0
    9.1466   10.2850   23.6175 N   0  0  0  0  0  0  0  0  0  0  0  0
    9.5118    8.9366   23.2478 C   0  0  0  0  0  0  0  0  0  0  0  0
    8.1891   10.6978   24.5127 C   0  0  0  0  0  0  0  0  0  0  0  0
    7.2563    9.9973   25.2889 C   0  0  0  0  0  0  0  0  0  0  0  0
    6.4043   10.7381   26.1100 C   0  0  0  0  0  0  0  0  0  0  0  0
    6.4923   12.1237   26.1478 C   0  0  0  0  0  0  0  0  0  0  0  0
    5.6748   12.8018   26.9645 F   0  0  0  0  0  0  0  0  0  0  0  0
    7.4201   12.8225   25.3750 C   0  0  0  0  0  0  0  0  0  0  0  0
    8.2891   12.0906   24.5429 C   0  0  0  0  0  0  0  0  0  0  0  0
   10.6556   15.0024   20.9982 C   0  0  0  0  0  0  0  0  0  0  0  0
   10.5893   16.4068   21.5413 C   0  0  0  0  0  0  0  0  0  0  0  0
    9.5172   17.5052   20.5808 S   0  0  0  0  0  0  0  0  0  0  0  0
   12.1023   14.5908   20.6540 C   0  0  0  0  0  0  0  0  0  0  0  0
   11.1333   14.8077   19.5573 C   0  0  0  0  0  0  0  0  0  0  0  0
  1  2  1  0
  2  3  1  0
  3  4  2  0
  3  5  1  0
  5  6  2  0
  6  7  1  0
  7  8  1  0
  7  9  1  0
  9 10  2  0
 10 11  1  0
 11 12  2  0
 12 13  1  0
 12 14  1  0
 14 15  2  0
  2 16  1  0
 16 17  1  0
 17 18  1  0
 16 19  1  0
 19 20  1  0
 15  5  1  0
 20 16  1  0
 15  9  1  0
M  END
>  <alias>  (126) 
None

>  <rmsd(smina/fragmenstein)>  (126) 
0.644

>  <smiles>  (126) 
CN(C(=O)c1nn(C)c2ccc(F)cc12)C1(CS)CC1

>  <gnina_score>  (126) 
5.706

>  <inspiration_score>  (126) 
None

>  <energy_score>  (126) 
-10.564354

>  <distance_score>  (126) 
0.474376

>  <gnina_score_min>  (126) 
5.717

>  <inchikey>  (126) 
XGVNGQDDPCJLDC-UHFFFAOYSA-N

>  <exports>  (126) 
['/opt/xchem-fragalysis-2/maxwin/BulkDock/OUTPUTS/openbind_a71ev2a_c2_elabs_1LOUU54.sdf', '/opt/xchem-fragalysis-2/maxwin/BulkDock/OUTPUTS/openbind_a71ev2a_c2_elabs_1LSYIDY.sdf']

>  <name>  (126) 
P570004

>  <ref_pdb>  (126) 
A2339a

>  <subsites>  (126) 
None

>  <HIPPO Pose ID>  (126) 
570004

>  <ref_mols>  (126) 
A2339a

>  <HIPPO Compound ID>  (126) 
410998

>  <tags>  (126) 
openbind_a71ev2a_c2_elabs,syndirella_product,openbind_a71ev2a_c2_elabs_scored,BulkDock Fragalysis export,openbind_a71ev2a_c2_elabs_scored_top80percent,openbind_a71ev2a_c2_elabs_scored_top80percent_despaghettified,syndirella_placed

>  <smina_score_min>  (126) 
-6.481

$$$$
P570010
     RDKit          3D

 20 22  0  0  0  0  0  0  0  0999 V2000
    9.6092    8.9006   23.1351 C   0  0  0  0  0  0  0  0  0  0  0  0
    9.2293   10.2377   23.5305 N   0  0  0  0  0  0  0  0  0  0  0  0
    9.8709   11.2818   22.9724 N   0  0  0  0  0  0  0  0  0  0  0  0
    9.3479   12.3648   23.5743 C   0  0  0  0  0  0  0  0  0  0  0  0
    9.8183   13.7292   23.2536 C   0  0  0  0  0  0  0  0  0  0  0  0
    9.5156   14.6275   23.9360 O   0  0  0  0  0  0  0  0  0  0  0  0
   10.6344   13.6988   21.9401 N   0  0  0  0  0  0  0  0  0  0  0  0
   11.1606   14.7644   21.1520 C   0  0  1  0  0  0  0  0  0  0  0  0
   12.2630   15.5139   21.8152 C   0  0  0  0  0  0  0  0  0  0  0  0
   11.1855   14.7706   19.6388 C   0  0  0  0  0  0  0  0  0  0  0  0
   10.1533   15.5419   20.3504 C   0  0  0  0  0  0  0  0  0  0  0  0
    8.8418   15.1181   20.3312 F   0  0  0  0  0  0  0  0  0  0  0  0
   10.1435   16.9136   20.3367 F   0  0  0  0  0  0  0  0  0  0  0  0
    8.3186   11.9958   24.4917 C   0  0  0  0  0  0  0  0  0  0  0  0
    7.4290   12.6791   25.3458 C   0  0  0  0  0  0  0  0  0  0  0  0
    6.5322   11.9358   26.1143 C   0  0  0  0  0  0  0  0  0  0  0  0
    5.7118   12.5672   26.9646 F   0  0  0  0  0  0  0  0  0  0  0  0
    6.4869   10.5506   26.0444 C   0  0  0  0  0  0  0  0  0  0  0  0
    7.3588    9.8596   25.2024 C   0  0  0  0  0  0  0  0  0  0  0  0
    8.2648   10.6043   24.4364 C   0  0  0  0  0  0  0  0  0  0  0  0
  1  2  1  0
  2  3  1  0
  3  4  2  0
  4  5  1  0
  5  6  2  0
  5  7  1  0
  8  7  1  0
  8  9  1  1
  8 10  1  0
 10 11  1  0
 11 12  1  0
 11 13  1  0
  4 14  1  0
 14 15  2  0
 15 16  1  0
 16 17  1  0
 16 18  2  0
 18 19  1  0
 19 20  2  0
 20  2  1  0
 11  8  1  0
 20 14  1  0
M  END
>  <alias>  (127) 
None

>  <rmsd(smina/fragmenstein)>  (127) 
0.474

>  <smiles>  (127) 
Cn1nc(C(=O)N[C@@]2(C)CC2(F)F)c2cc(F)ccc21

>  <gnina_score>  (127) 
5.716

>  <inspiration_score>  (127) 
None

>  <energy_score>  (127) 
-27.929949

>  <distance_score>  (127) 
0.449595

>  <gnina_score_min>  (127) 
5.752

>  <inchikey>  (127) 
IMZASKJCFIXCQA-LBPRGKRZSA-N

>  <exports>  (127) 
['/opt/xchem-fragalysis-2/maxwin/BulkDock/OUTPUTS/openbind_a71ev2a_c2_elabs_1LOUU54.sdf', '/opt/xchem-fragalysis-2/maxwin/BulkDock/OUTPUTS/openbind_a71ev2a_c2_elabs_1LSYIDY.sdf']

>  <name>  (127) 
P570010

>  <ref_pdb>  (127) 
A2339a

>  <subsites>  (127) 
None

>  <HIPPO Pose ID>  (127) 
570010

>  <ref_mols>  (127) 
A2339a

>  <HIPPO Compound ID>  (127) 
411001

>  <tags>  (127) 
openbind_a71ev2a_c2_elabs,syndirella_product,openbind_a71ev2a_c2_elabs_scored,BulkDock Fragalysis export,openbind_a71ev2a_c2_elabs_scored_top80percent,openbind_a71ev2a_c2_elabs_scored_top80percent_despaghettified,syndirella_placed

>  <smina_score_min>  (127) 
-8.038

$$$$
P570011
     RDKit          3D

 20 23  0  0  0  0  0  0  0  0999 V2000
    9.5534    8.8600   23.1014 C   0  0  0  0  0  0  0  0  0  0  0  0
    9.2039   10.1915   23.5407 N   0  0  0  0  0  0  0  0  0  0  0  0
    9.8776   11.2343   23.0234 N   0  0  0  0  0  0  0  0  0  0  0  0
    9.3888   12.3074   23.6664 C   0  0  0  0  0  0  0  0  0  0  0  0
    9.9437   13.6502   23.4345 C   0  0  0  0  0  0  0  0  0  0  0  0
    9.7609   14.5096   24.2069 O   0  0  0  0  0  0  0  0  0  0  0  0
   10.7142   13.6557   22.0880 N   0  0  0  0  0  0  0  0  0  0  0  0
   11.3354   14.7391   21.3702 C   0  0  2  0  0  0  0  0  0  0  0  0
   11.0914   16.1017   21.9173 C   0  0  0  0  0  0  0  0  0  0  0  0
    9.5150   16.4887   21.0397 S   0  0  0  0  0  0  0  0  0  0  0  0
    9.6865   15.1337   19.8301 C   0  0  0  0  0  0  0  0  0  0  0  0
   11.1460   14.9060   19.8252 C   0  0  2  0  0  0  0  0  0  0  0  0
   12.4028   14.3609   20.4669 C   0  0  0  0  0  0  0  0  0  0  0  0
    8.3266   11.9464   24.5427 C   0  0  0  0  0  0  0  0  0  0  0  0
    7.4413   12.6330   25.3977 C   0  0  0  0  0  0  0  0  0  0  0  0
    6.5207   11.8941   26.1405 C   0  0  0  0  0  0  0  0  0  0  0  0
    5.6999   12.5266   26.9899 F   0  0  0  0  0  0  0  0  0  0  0  0
    6.4554   10.5107   26.0500 C   0  0  0  0  0  0  0  0  0  0  0  0
    7.3227    9.8186   25.2035 C   0  0  0  0  0  0  0  0  0  0  0  0
    8.2437   10.5584   24.4528 C   0  0  0  0  0  0  0  0  0  0  0  0
  1  2  1  0
  2  3  1  0
  3  4  2  0
  4  5  1  0
  5  6  2  0
  5  7  1  0
  8  7  1  1
  8  9  1  0
  9 10  1  0
 10 11  1  0
 12 11  1  6
 12 13  1  0
  4 14  1  0
 14 15  2  0
 15 16  1  0
 16 17  1  0
 16 18  2  0
 18 19  1  0
 19 20  2  0
 20  2  1  0
 12  8  1  0
 20 14  1  0
 13  8  1  0
M  END
>  <alias>  (128) 
None

>  <rmsd(smina/fragmenstein)>  (128) 
0.884

>  <smiles>  (128) 
Cn1nc(C(=O)N[C@]23CSC[C@@H]2C3)c2cc(F)ccc21

>  <gnina_score>  (128) 
5.795

>  <inspiration_score>  (128) 
None

>  <energy_score>  (128) 
-34.872974

>  <distance_score>  (128) 
0.325352

>  <gnina_score_min>  (128) 
5.705

>  <inchikey>  (128) 
BCWPFEURKYWODZ-NVDIHYKVSA-N

>  <exports>  (128) 
['/opt/xchem-fragalysis-2/maxwin/BulkDock/OUTPUTS/openbind_a71ev2a_c2_elabs_1LOUU54.sdf', '/opt/xchem-fragalysis-2/maxwin/BulkDock/OUTPUTS/openbind_a71ev2a_c2_elabs_1LSYIDY.sdf']

>  <name>  (128) 
P570011

>  <ref_pdb>  (128) 
A2339a

>  <subsites>  (128) 
None

>  <HIPPO Pose ID>  (128) 
570011

>  <ref_mols>  (128) 
A2339a

>  <HIPPO Compound ID>  (128) 
411002

>  <tags>  (128) 
openbind_a71ev2a_c2_elabs,syndirella_product,openbind_a71ev2a_c2_elabs_scored,BulkDock Fragalysis export,openbind_a71ev2a_c2_elabs_scored_top80percent,openbind_a71ev2a_c2_elabs_scored_top80percent_despaghettified,syndirella_placed

>  <smina_score_min>  (128) 
-6.16

$$$$
P570018
     RDKit          3D

 20 22  0  0  0  0  0  0  0  0999 V2000
   11.1967   14.4805   24.9057 C   0  0  0  0  0  0  0  0  0  0  0  0
   12.3634   13.8118   23.6881 S   0  0  0  0  0  0  0  0  0  0  0  0
   12.0663   14.9848   22.2784 C   0  0  0  0  0  0  0  0  0  0  0  0
   10.8534   14.6329   21.4398 C   0  0  0  0  0  0  0  0  0  0  0  0
   10.0895   13.6068   22.0302 N   0  0  0  0  0  0  0  0  0  0  0  0
    8.9424   13.6768   23.0526 C   0  0  0  0  0  0  0  0  0  0  0  0
    8.3938   14.5979   23.5115 O   0  0  0  0  0  0  0  0  0  0  0  0
    8.6551   12.3077   23.5029 C   0  0  0  0  0  0  0  0  0  0  0  0
    9.3542   11.2623   23.0221 N   0  0  0  0  0  0  0  0  0  0  0  0
    8.8732   10.1981   23.6866 N   0  0  0  0  0  0  0  0  0  0  0  0
    9.4180    8.8957   23.3773 C   0  0  0  0  0  0  0  0  0  0  0  0
    7.9085   10.5269   24.6080 C   0  0  0  0  0  0  0  0  0  0  0  0
    7.1092    9.7604   25.4585 C   0  0  0  0  0  0  0  0  0  0  0  0
    6.2381   10.4222   26.3255 C   0  0  0  0  0  0  0  0  0  0  0  0
    6.1802   11.8073   26.3353 C   0  0  0  0  0  0  0  0  0  0  0  0
    5.3797   12.4207   27.2158 F   0  0  0  0  0  0  0  0  0  0  0  0
    6.9373   12.5745   25.4554 C   0  0  0  0  0  0  0  0  0  0  0  0
    7.7966   11.9139   24.5582 C   0  0  0  0  0  0  0  0  0  0  0  0
   10.1231   15.7427   20.7145 C   0  0  0  0  0  0  0  0  0  0  0  0
   11.0207   14.8216   19.9576 C   0  0  0  0  0  0  0  0  0  0  0  0
  1  2  1  0
  2  3  1  0
  3  4  1  0
  4  5  1  0
  5  6  1  0
  6  7  2  0
  6  8  1  0
  8  9  2  0
  9 10  1  0
 10 11  1  0
 10 12  1  0
 12 13  2  0
 13 14  1  0
 14 15  2  0
 15 16  1  0
 15 17  1  0
 17 18  2  0
  4 19  1  0
 19 20  1  0
 20  4  1  0
 18  8  1  0
 18 12  1  0
M  END
>  <alias>  (129) 
None

>  <rmsd(smina/fragmenstein)>  (129) 
0.883

>  <smiles>  (129) 
CSCC1(NC(=O)c2nn(C)c3ccc(F)cc23)CC1

>  <gnina_score>  (129) 
5.723

>  <inspiration_score>  (129) 
None

>  <energy_score>  (129) 
-39.530251

>  <distance_score>  (129) 
0.647895

>  <gnina_score_min>  (129) 
5.395

>  <inchikey>  (129) 
BSTFCLBPWTUDPZ-UHFFFAOYSA-N

>  <exports>  (129) 
['/opt/xchem-fragalysis-2/maxwin/BulkDock/OUTPUTS/openbind_a71ev2a_c2_elabs_1LOUU54.sdf', '/opt/xchem-fragalysis-2/maxwin/BulkDock/OUTPUTS/openbind_a71ev2a_c2_elabs_1LSYIDY.sdf']

>  <name>  (129) 
P570018

>  <ref_pdb>  (129) 
A2339a

>  <subsites>  (129) 
None

>  <HIPPO Pose ID>  (129) 
570018

>  <ref_mols>  (129) 
A2339a

>  <HIPPO Compound ID>  (129) 
411006

>  <tags>  (129) 
openbind_a71ev2a_c2_elabs,syndirella_product,openbind_a71ev2a_c2_elabs_scored,BulkDock Fragalysis export,openbind_a71ev2a_c2_elabs_scored_top80percent,openbind_a71ev2a_c2_elabs_scored_top80percent_despaghettified,syndirella_placed

>  <smina_score_min>  (129) 
-5.977

$$$$
P570020
     RDKit          3D

 20 22  0  0  0  0  0  0  0  0999 V2000
    9.5680    8.8237   23.2433 C   0  0  0  0  0  0  0  0  0  0  0  0
    9.0464   10.1187   23.6127 N   0  0  0  0  0  0  0  0  0  0  0  0
    9.5667   11.2106   23.0186 N   0  0  0  0  0  0  0  0  0  0  0  0
    8.9112   12.2346   23.5889 C   0  0  0  0  0  0  0  0  0  0  0  0
    9.2221   13.6314   23.2997 C   0  0  0  0  0  0  0  0  0  0  0  0
    8.7245   14.4609   23.9520 O   0  0  0  0  0  0  0  0  0  0  0  0
   10.2838   13.7382   22.1852 N   0  0  0  0  0  0  0  0  0  0  0  0
   11.0057   14.8470   21.7180 C   0  0  1  0  0  0  0  0  0  0  0  0
   11.5187   15.5602   22.9046 C   0  0  0  0  0  0  0  0  0  0  0  0
   11.9476   14.9955   20.5833 C   0  0  0  0  0  0  0  0  0  0  0  0
   10.5547   15.6049   20.4829 C   0  0  0  0  0  0  0  0  0  0  0  0
   10.0868   17.0054   20.7283 C   0  0  0  0  0  0  0  0  0  0  0  0
    9.7755   14.9818   19.4140 C   0  0  0  0  0  0  0  0  0  0  0  0
    7.9747   11.7931   24.5595 C   0  0  0  0  0  0  0  0  0  0  0  0
    7.0758   12.4158   25.4494 C   0  0  0  0  0  0  0  0  0  0  0  0
    6.2727   11.6183   26.2562 C   0  0  0  0  0  0  0  0  0  0  0  0
    5.4383   12.1974   27.1288 F   0  0  0  0  0  0  0  0  0  0  0  0
    6.3324   10.2358   26.1875 C   0  0  0  0  0  0  0  0  0  0  0  0
    7.2370    9.6137   25.3233 C   0  0  0  0  0  0  0  0  0  0  0  0
    8.0616   10.4090   24.5268 C   0  0  0  0  0  0  0  0  0  0  0  0
  1  2  1  0
  2  3  1  0
  3  4  2  0
  4  5  1  0
  5  6  2  0
  5  7  1  0
  8  7  1  0
  8  9  1  1
  8 10  1  0
 10 11  1  0
 11 12  1  0
 11 13  1  0
  4 14  1  0
 14 15  2  0
 15 16  1  0
 16 17  1  0
 16 18  2  0
 18 19  1  0
 19 20  2  0
 20  2  1  0
 11  8  1  0
 20 14  1  0
M  END
>  <alias>  (130) 
None

>  <rmsd(smina/fragmenstein)>  (130) 
0.315

>  <smiles>  (130) 
Cn1nc(C(=O)N[C@@]2(C)CC2(C)C)c2cc(F)ccc21

>  <gnina_score>  (130) 
5.731

>  <inspiration_score>  (130) 
None

>  <energy_score>  (130) 
-13.484733

>  <distance_score>  (130) 
0.356695

>  <gnina_score_min>  (130) 
5.73

>  <inchikey>  (130) 
XSPGJELQGNWNNN-HNNXBMFYSA-N

>  <exports>  (130) 
['/opt/xchem-fragalysis-2/maxwin/BulkDock/OUTPUTS/openbind_a71ev2a_c2_elabs_1LOUU54.sdf', '/opt/xchem-fragalysis-2/maxwin/BulkDock/OUTPUTS/openbind_a71ev2a_c2_elabs_1LSYIDY.sdf']

>  <name>  (130) 
P570020

>  <ref_pdb>  (130) 
A2339a

>  <subsites>  (130) 
None

>  <HIPPO Pose ID>  (130) 
570020

>  <ref_mols>  (130) 
A2339a

>  <HIPPO Compound ID>  (130) 
411007

>  <tags>  (130) 
openbind_a71ev2a_c2_elabs,syndirella_product,openbind_a71ev2a_c2_elabs_scored,BulkDock Fragalysis export,openbind_a71ev2a_c2_elabs_scored_top80percent,openbind_a71ev2a_c2_elabs_scored_top80percent_despaghettified,syndirella_placed

>  <smina_score_min>  (130) 
-6.908

$$$$
P570021
     RDKit          3D

 20 22  0  0  0  0  0  0  0  0999 V2000
    7.2450   15.0396   21.9832 C   0  0  0  0  0  0  0  0  0  0  0  0
    8.2862   15.3828   21.4888 C   0  0  0  0  0  0  0  0  0  0  0  0
    9.5534   15.8282   20.8779 C   0  0  0  0  0  0  0  0  0  0  0  0
   10.6799   14.8817   21.3121 C   0  0  0  0  0  0  0  0  0  0  0  0
   10.3103   13.7628   22.1025 N   0  0  0  0  0  0  0  0  0  0  0  0
    9.8099   13.6867   23.5606 C   0  0  0  0  0  0  0  0  0  0  0  0
    9.6961   14.5243   24.3670 O   0  0  0  0  0  0  0  0  0  0  0  0
    9.3534   12.3155   23.8162 C   0  0  0  0  0  0  0  0  0  0  0  0
    9.8524   11.2658   23.1417 N   0  0  0  0  0  0  0  0  0  0  0  0
    9.1758   10.2055   23.6234 N   0  0  0  0  0  0  0  0  0  0  0  0
    9.5259    8.8887   23.1421 C   0  0  0  0  0  0  0  0  0  0  0  0
    8.2070   10.5447   24.5380 C   0  0  0  0  0  0  0  0  0  0  0  0
    7.2699    9.7888   25.2498 C   0  0  0  0  0  0  0  0  0  0  0  0
    6.3843   10.4584   26.0967 C   0  0  0  0  0  0  0  0  0  0  0  0
    6.4454   11.8384   26.2237 C   0  0  0  0  0  0  0  0  0  0  0  0
    5.6048   12.4536   27.0664 F   0  0  0  0  0  0  0  0  0  0  0  0
    7.3819   12.5940   25.5212 C   0  0  0  0  0  0  0  0  0  0  0  0
    8.2894   11.9271   24.6742 C   0  0  0  0  0  0  0  0  0  0  0  0
   12.0302   15.4965   21.5722 C   0  0  0  0  0  0  0  0  0  0  0  0
   11.8166   14.7294   20.3157 C   0  0  0  0  0  0  0  0  0  0  0  0
  1  2  3  0
  2  3  1  0
  3  4  1  0
  4  5  1  0
  5  6  1  0
  6  7  2  0
  6  8  1  0
  8  9  2  0
  9 10  1  0
 10 11  1  0
 10 12  1  0
 12 13  2  0
 13 14  1  0
 14 15  2  0
 15 16  1  0
 15 17  1  0
 17 18  2  0
  4 19  1  0
 19 20  1  0
 20  4  1  0
 18  8  1  0
 18 12  1  0
M  END
>  <alias>  (131) 
None

>  <rmsd(smina/fragmenstein)>  (131) 
0.796

>  <smiles>  (131) 
C#CCC1(NC(=O)c2nn(C)c3ccc(F)cc23)CC1

>  <gnina_score>  (131) 
5.793

>  <inspiration_score>  (131) 
None

>  <energy_score>  (131) 
-7.024693

>  <distance_score>  (131) 
0.501044

>  <gnina_score_min>  (131) 
5.742

>  <inchikey>  (131) 
ZCYUDSNSBINRKV-UHFFFAOYSA-N

>  <exports>  (131) 
['/opt/xchem-fragalysis-2/maxwin/BulkDock/OUTPUTS/openbind_a71ev2a_c2_elabs_1LOUU54.sdf', '/opt/xchem-fragalysis-2/maxwin/BulkDock/OUTPUTS/openbind_a71ev2a_c2_elabs_1LSYIDY.sdf']

>  <name>  (131) 
P570021

>  <ref_pdb>  (131) 
A2339a

>  <subsites>  (131) 
None

>  <HIPPO Pose ID>  (131) 
570021

>  <ref_mols>  (131) 
A2339a

>  <HIPPO Compound ID>  (131) 
411008

>  <tags>  (131) 
openbind_a71ev2a_c2_elabs,syndirella_product,openbind_a71ev2a_c2_elabs_scored,BulkDock Fragalysis export,openbind_a71ev2a_c2_elabs_scored_top80percent,openbind_a71ev2a_c2_elabs_scored_top80percent_despaghettified,syndirella_placed

>  <smina_score_min>  (131) 
-7.152

$$$$
P570022
     RDKit          3D

 20 22  0  0  0  0  0  0  0  0999 V2000
   12.4252   14.4530   19.9905 C   0  0  0  0  0  0  0  0  0  0  0  0
   12.5570   15.2330   21.0649 C   0  0  0  0  0  0  0  0  0  0  0  0
   11.4506   15.8203   21.8616 C   0  0  0  0  0  0  0  0  0  0  0  0
   10.0610   15.3505   21.5504 C   0  0  0  0  0  0  0  0  0  0  0  0
    9.6795   14.1766   22.2438 N   0  0  0  0  0  0  0  0  0  0  0  0
    9.1840   13.9850   23.6863 C   0  0  0  0  0  0  0  0  0  0  0  0
    8.9369   14.7711   24.5117 O   0  0  0  0  0  0  0  0  0  0  0  0
    8.9366   12.5498   23.9024 C   0  0  0  0  0  0  0  0  0  0  0  0
    9.5627   11.5914   23.1926 N   0  0  0  0  0  0  0  0  0  0  0  0
    9.0502   10.4341   23.6652 N   0  0  0  0  0  0  0  0  0  0  0  0
    9.5454    9.1740   23.1491 C   0  0  0  0  0  0  0  0  0  0  0  0
    8.0679   10.6230   24.6088 C   0  0  0  0  0  0  0  0  0  0  0  0
    7.2431    9.7357   25.3053 C   0  0  0  0  0  0  0  0  0  0  0  0
    6.3109   10.2661   26.2010 C   0  0  0  0  0  0  0  0  0  0  0  0
    6.2265   11.6381   26.3939 C   0  0  0  0  0  0  0  0  0  0  0  0
    5.3515   12.1243   27.2826 F   0  0  0  0  0  0  0  0  0  0  0  0
    7.0462   12.5225   25.7020 C   0  0  0  0  0  0  0  0  0  0  0  0
    7.9843   11.9984   24.7944 C   0  0  0  0  0  0  0  0  0  0  0  0
    9.5448   15.5678   20.1530 C   0  0  0  0  0  0  0  0  0  0  0  0
    9.0106   16.3969   21.2659 C   0  0  0  0  0  0  0  0  0  0  0  0
  1  2  2  0
  2  3  1  0
  3  4  1  0
  4  5  1  0
  5  6  1  0
  6  7  2  0
  6  8  1  0
  8  9  2  0
  9 10  1  0
 10 11  1  0
 10 12  1  0
 12 13  2  0
 13 14  1  0
 14 15  2  0
 15 16  1  0
 15 17  1  0
 17 18  2  0
  4 19  1  0
 19 20  1  0
 20  4  1  0
 18  8  1  0
 18 12  1  0
M  END
>  <alias>  (132) 
None

>  <rmsd(smina/fragmenstein)>  (132) 
0.413

>  <smiles>  (132) 
C=CCC1(NC(=O)c2nn(C)c3ccc(F)cc23)CC1

>  <gnina_score>  (132) 
5.623

>  <inspiration_score>  (132) 
None

>  <energy_score>  (132) 
-11.284283

>  <distance_score>  (132) 
1.024624

>  <gnina_score_min>  (132) 
5.607

>  <inchikey>  (132) 
NANZHMVURZSVHX-UHFFFAOYSA-N

>  <exports>  (132) 
['/opt/xchem-fragalysis-2/maxwin/BulkDock/OUTPUTS/openbind_a71ev2a_c2_elabs_1LOUU54.sdf', '/opt/xchem-fragalysis-2/maxwin/BulkDock/OUTPUTS/openbind_a71ev2a_c2_elabs_1LSYIDY.sdf']

>  <name>  (132) 
P570022

>  <ref_pdb>  (132) 
A2339a

>  <subsites>  (132) 
None

>  <HIPPO Pose ID>  (132) 
570022

>  <ref_mols>  (132) 
A2339a

>  <HIPPO Compound ID>  (132) 
411009

>  <tags>  (132) 
openbind_a71ev2a_c2_elabs,syndirella_product,openbind_a71ev2a_c2_elabs_scored,BulkDock Fragalysis export,openbind_a71ev2a_c2_elabs_scored_top80percent,openbind_a71ev2a_c2_elabs_scored_top80percent_despaghettified,syndirella_placed

>  <smina_score_min>  (132) 
-6.549

$$$$
P570023
     RDKit          3D

 20 23  0  0  0  0  0  0  0  0999 V2000
    9.4890    9.0152   23.1865 C   0  0  0  0  0  0  0  0  0  0  0  0
    9.0491   10.3354   23.5817 N   0  0  0  0  0  0  0  0  0  0  0  0
    9.6264   11.4017   23.0079 N   0  0  0  0  0  0  0  0  0  0  0  0
    9.1127   12.4683   23.6453 C   0  0  0  0  0  0  0  0  0  0  0  0
    9.6695   13.8244   23.4470 C   0  0  0  0  0  0  0  0  0  0  0  0
    9.7072   14.5755   24.3593 O   0  0  0  0  0  0  0  0  0  0  0  0
   10.2073   13.9671   22.0358 N   0  0  0  0  0  0  0  0  0  0  0  0
    9.1523   14.5938   21.0858 C   0  0  0  0  0  0  0  0  0  0  0  0
   10.2770   15.0682   20.1811 C   0  0  2  0  0  0  0  0  0  0  0  0
   10.8163   14.2286   19.1494 O   0  0  0  0  0  0  0  0  0  0  0  0
   10.9906   15.0016   21.4372 C   0  0  0  0  0  0  0  0  0  0  0  0
   12.4749   15.0039   21.5943 C   0  0  0  0  0  0  0  0  0  0  0  0
   11.6271   16.1104   22.1357 C   0  0  0  0  0  0  0  0  0  0  0  0
    8.1177   12.0629   24.5807 C   0  0  0  0  0  0  0  0  0  0  0  0
    7.2573   12.7161   25.4837 C   0  0  0  0  0  0  0  0  0  0  0  0
    6.3938   11.9436   26.2600 C   0  0  0  0  0  0  0  0  0  0  0  0
    5.5848   12.5489   27.1393 F   0  0  0  0  0  0  0  0  0  0  0  0
    6.3675   10.5587   26.1668 C   0  0  0  0  0  0  0  0  0  0  0  0
    7.2291    9.8951   25.2926 C   0  0  0  0  0  0  0  0  0  0  0  0
    8.0938   10.6693   24.5099 C   0  0  0  0  0  0  0  0  0  0  0  0
  1  2  1  0
  2  3  1  0
  3  4  2  0
  4  5  1  0
  5  6  2  0
  5  7  1  0
  7  8  1  0
  8  9  1  0
  9 10  1  6
  9 11  1  0
 11 12  1  0
 12 13  1  0
  4 14  1  0
 14 15  2  0
 15 16  1  0
 16 17  1  0
 16 18  2  0
 18 19  1  0
 19 20  2  0
 20  2  1  0
 11  7  1  0
 20 14  1  0
 13 11  1  0
M  END
>  <alias>  (133) 
None

>  <rmsd(smina/fragmenstein)>  (133) 
0.511

>  <smiles>  (133) 
Cn1nc(C(=O)N2C[C@H](O)C23CC3)c2cc(F)ccc21

>  <gnina_score>  (133) 
5.543

>  <inspiration_score>  (133) 
None

>  <energy_score>  (133) 
-7.090508

>  <distance_score>  (133) 
0.635645

>  <gnina_score_min>  (133) 
5.454

>  <inchikey>  (133) 
JNBHNUGIRSZMED-NSHDSACASA-N

>  <exports>  (133) 
['/opt/xchem-fragalysis-2/maxwin/BulkDock/OUTPUTS/openbind_a71ev2a_c2_elabs_1LOUU54.sdf', '/opt/xchem-fragalysis-2/maxwin/BulkDock/OUTPUTS/openbind_a71ev2a_c2_elabs_1LSYIDY.sdf']

>  <name>  (133) 
P570023

>  <ref_pdb>  (133) 
A2339a

>  <subsites>  (133) 
None

>  <HIPPO Pose ID>  (133) 
570023

>  <ref_mols>  (133) 
A2339a

>  <HIPPO Compound ID>  (133) 
411010

>  <tags>  (133) 
openbind_a71ev2a_c2_elabs,syndirella_product,openbind_a71ev2a_c2_elabs_scored,BulkDock Fragalysis export,openbind_a71ev2a_c2_elabs_scored_top80percent,openbind_a71ev2a_c2_elabs_scored_top80percent_despaghettified,syndirella_placed

>  <smina_score_min>  (133) 
-7.798

$$$$
P570027
     RDKit          3D

 20 22  0  0  0  0  0  0  0  0999 V2000
    9.5858    9.0461   23.1483 C   0  0  0  0  0  0  0  0  0  0  0  0
    9.1012   10.3366   23.5895 N   0  0  0  0  0  0  0  0  0  0  0  0
    9.6096   11.4529   23.0289 N   0  0  0  0  0  0  0  0  0  0  0  0
    8.9577   12.4622   23.6349 C   0  0  0  0  0  0  0  0  0  0  0  0
    9.1667   13.8695   23.2522 C   0  0  0  0  0  0  0  0  0  0  0  0
    8.7774   14.7337   23.9362 O   0  0  0  0  0  0  0  0  0  0  0  0
    9.8884   13.9208   21.8834 N   0  0  0  0  0  0  0  0  0  0  0  0
   10.3602   15.0337   21.1262 C   0  0  0  0  0  0  0  0  0  0  0  0
   11.1031   14.7345   19.8666 C   0  0  0  0  0  0  0  0  0  0  0  0
   12.4573   14.1916   20.2226 C   0  0  0  0  0  0  0  0  0  0  0  0
   12.7894   13.2753   19.2904 F   0  0  0  0  0  0  0  0  0  0  0  0
    9.6682   16.3586   21.1964 C   0  0  0  0  0  0  0  0  0  0  0  0
   10.9697   16.1361   21.9223 C   0  0  0  0  0  0  0  0  0  0  0  0
    8.0418   11.9791   24.6076 C   0  0  0  0  0  0  0  0  0  0  0  0
    7.1236   12.5627   25.5016 C   0  0  0  0  0  0  0  0  0  0  0  0
    6.3177   11.7274   26.2701 C   0  0  0  0  0  0  0  0  0  0  0  0
    5.4616   12.2694   27.1460 F   0  0  0  0  0  0  0  0  0  0  0  0
    6.3891   10.3459   26.1594 C   0  0  0  0  0  0  0  0  0  0  0  0
    7.3042    9.7555   25.2847 C   0  0  0  0  0  0  0  0  0  0  0  0
    8.1270   10.5927   24.5249 C   0  0  0  0  0  0  0  0  0  0  0  0
  1  2  1  0
  2  3  1  0
  3  4  2  0
  4  5  1  0
  5  6  2  0
  5  7  1  0
  7  8  1  0
  8  9  1  0
  9 10  1  0
 10 11  1  0
  8 12  1  0
 12 13  1  0
  4 14  1  0
 14 15  2  0
 15 16  1  0
 16 17  1  0
 16 18  2  0
 18 19  1  0
 19 20  2  0
 20  2  1  0
 13  8  1  0
 20 14  1  0
M  END
>  <alias>  (134) 
None

>  <rmsd(smina/fragmenstein)>  (134) 
0.83

>  <smiles>  (134) 
Cn1nc(C(=O)NC2(CCF)CC2)c2cc(F)ccc21

>  <gnina_score>  (134) 
5.09

>  <inspiration_score>  (134) 
None

>  <energy_score>  (134) 
-10.510082

>  <distance_score>  (134) 
0.807978

>  <gnina_score_min>  (134) 
5.466

>  <inchikey>  (134) 
HYWSGQBZTZPVKE-UHFFFAOYSA-N

>  <exports>  (134) 
['/opt/xchem-fragalysis-2/maxwin/BulkDock/OUTPUTS/openbind_a71ev2a_c2_elabs_1LOUU54.sdf', '/opt/xchem-fragalysis-2/maxwin/BulkDock/OUTPUTS/openbind_a71ev2a_c2_elabs_1LSYIDY.sdf']

>  <name>  (134) 
P570027

>  <ref_pdb>  (134) 
A2339a

>  <subsites>  (134) 
None

>  <HIPPO Pose ID>  (134) 
570027

>  <ref_mols>  (134) 
A2339a

>  <HIPPO Compound ID>  (134) 
411015

>  <tags>  (134) 
openbind_a71ev2a_c2_elabs,syndirella_product,openbind_a71ev2a_c2_elabs_scored,BulkDock Fragalysis export,openbind_a71ev2a_c2_elabs_scored_top80percent,openbind_a71ev2a_c2_elabs_scored_top80percent_despaghettified,syndirella_placed

>  <smina_score_min>  (134) 
-6.16

$$$$
P570033
     RDKit          3D

 20 22  0  0  0  0  0  0  0  0999 V2000
   11.3476   14.9772   24.0120 C   0  0  0  0  0  0  0  0  0  0  0  0
   10.9737   15.5642   22.6356 C   0  0  1  0  0  0  0  0  0  0  0  0
   11.8861   16.5738   22.2743 O   0  0  0  0  0  0  0  0  0  0  0  0
   10.9324   14.5073   21.5602 C   0  0  0  0  0  0  0  0  0  0  0  0
   10.2214   13.4203   22.0936 N   0  0  0  0  0  0  0  0  0  0  0  0
    8.9592   13.3868   22.9737 C   0  0  0  0  0  0  0  0  0  0  0  0
    8.2645   14.2516   23.3317 O   0  0  0  0  0  0  0  0  0  0  0  0
    8.7365   12.0371   23.4571 C   0  0  0  0  0  0  0  0  0  0  0  0
    9.4595   10.9940   23.0262 N   0  0  0  0  0  0  0  0  0  0  0  0
    8.9316    9.9460   23.6835 N   0  0  0  0  0  0  0  0  0  0  0  0
    9.4372    8.6299   23.3781 C   0  0  0  0  0  0  0  0  0  0  0  0
    7.9592   10.3072   24.5881 C   0  0  0  0  0  0  0  0  0  0  0  0
    7.1300    9.5841   25.4426 C   0  0  0  0  0  0  0  0  0  0  0  0
    6.2579   10.2729   26.2891 C   0  0  0  0  0  0  0  0  0  0  0  0
    6.2227   11.6563   26.2736 C   0  0  0  0  0  0  0  0  0  0  0  0
    5.4217   12.3030   27.1295 F   0  0  0  0  0  0  0  0  0  0  0  0
    7.0050   12.3852   25.3866 C   0  0  0  0  0  0  0  0  0  0  0  0
    7.8676   11.6883   24.5165 C   0  0  0  0  0  0  0  0  0  0  0  0
   10.8058   14.9371   20.1263 C   0  0  0  0  0  0  0  0  0  0  0  0
   12.1096   14.3926   20.6292 C   0  0  0  0  0  0  0  0  0  0  0  0
  2  1  1  1
  2  3  1  0
  2  4  1  0
  4  5  1  0
  5  6  1  0
  6  7  2  0
  6  8  1  0
  8  9  2  0
  9 10  1  0
 10 11  1  0
 10 12  1  0
 12 13  2  0
 13 14  1  0
 14 15  2  0
 15 16  1  0
 15 17  1  0
 17 18  2  0
  4 19  1  0
 19 20  1  0
 20  4  1  0
 18  8  1  0
 18 12  1  0
M  END
>  <alias>  (135) 
None

>  <rmsd(smina/fragmenstein)>  (135) 
1.019

>  <smiles>  (135) 
C[C@@H](O)C1(NC(=O)c2nn(C)c3ccc(F)cc23)CC1

>  <gnina_score>  (135) 
5.49

>  <inspiration_score>  (135) 
None

>  <energy_score>  (135) 
-17.85026

>  <distance_score>  (135) 
0.565356

>  <gnina_score_min>  (135) 
5.636

>  <inchikey>  (135) 
XRHJVBZUWPYOSY-MRVPVSSYSA-N

>  <exports>  (135) 
['/opt/xchem-fragalysis-2/maxwin/BulkDock/OUTPUTS/openbind_a71ev2a_c2_elabs_1LOUU54.sdf', '/opt/xchem-fragalysis-2/maxwin/BulkDock/OUTPUTS/openbind_a71ev2a_c2_elabs_1LSYIDY.sdf']

>  <name>  (135) 
P570033

>  <ref_pdb>  (135) 
A2339a

>  <subsites>  (135) 
None

>  <HIPPO Pose ID>  (135) 
570033

>  <ref_mols>  (135) 
A2339a

>  <HIPPO Compound ID>  (135) 
411018

>  <tags>  (135) 
openbind_a71ev2a_c2_elabs,syndirella_product,openbind_a71ev2a_c2_elabs_scored,BulkDock Fragalysis export,openbind_a71ev2a_c2_elabs_scored_top80percent,openbind_a71ev2a_c2_elabs_scored_top80percent_despaghettified,syndirella_placed

>  <smina_score_min>  (135) 
-7.8

$$$$
P570042
     RDKit          3D

 20 22  0  0  0  0  0  0  0  0999 V2000
    8.3963   15.7967   21.5340 C   0  0  0  0  0  0  0  0  0  0  0  0
    9.7124   15.8544   20.8159 C   0  0  0  0  0  0  0  0  0  0  0  0
    9.9056   16.6404   19.8906 O   0  0  0  0  0  0  0  0  0  0  0  0
   10.7917   14.8707   21.2424 C   0  0  0  0  0  0  0  0  0  0  0  0
   10.3830   13.7528   22.0244 N   0  0  0  0  0  0  0  0  0  0  0  0
    9.8541   13.6820   23.4728 C   0  0  0  0  0  0  0  0  0  0  0  0
    9.7425   14.5187   24.2796 O   0  0  0  0  0  0  0  0  0  0  0  0
    9.3613   12.3215   23.7254 C   0  0  0  0  0  0  0  0  0  0  0  0
    9.8466   11.2671   23.0512 N   0  0  0  0  0  0  0  0  0  0  0  0
    9.1938   10.2076   23.5648 N   0  0  0  0  0  0  0  0  0  0  0  0
    9.5516    8.8850   23.1039 C   0  0  0  0  0  0  0  0  0  0  0  0
    8.2324   10.5535   24.4848 C   0  0  0  0  0  0  0  0  0  0  0  0
    7.3112    9.7984   25.2188 C   0  0  0  0  0  0  0  0  0  0  0  0
    6.4342   10.4728   26.0702 C   0  0  0  0  0  0  0  0  0  0  0  0
    6.4919   11.8547   26.1834 C   0  0  0  0  0  0  0  0  0  0  0  0
    5.6601   12.4726   27.0326 F   0  0  0  0  0  0  0  0  0  0  0  0
    7.4156   12.6087   25.4611 C   0  0  0  0  0  0  0  0  0  0  0  0
    8.3098   11.9390   24.6025 C   0  0  0  0  0  0  0  0  0  0  0  0
   11.9393   14.6667   20.2620 C   0  0  0  0  0  0  0  0  0  0  0  0
   12.1590   15.4411   21.5170 C   0  0  0  0  0  0  0  0  0  0  0  0
  1  2  1  0
  2  3  2  0
  2  4  1  0
  4  5  1  0
  5  6  1  0
  6  7  2  0
  6  8  1  0
  8  9  2  0
  9 10  1  0
 10 11  1  0
 10 12  1  0
 12 13  2  0
 13 14  1  0
 14 15  2  0
 15 16  1  0
 15 17  1  0
 17 18  2  0
  4 19  1  0
 19 20  1  0
 20  4  1  0
 18  8  1  0
 18 12  1  0
M  END
>  <alias>  (136) 
None

>  <rmsd(smina/fragmenstein)>  (136) 
0.48

>  <smiles>  (136) 
CC(=O)C1(NC(=O)c2nn(C)c3ccc(F)cc23)CC1

>  <gnina_score>  (136) 
5.827

>  <inspiration_score>  (136) 
None

>  <energy_score>  (136) 
-5.270965

>  <distance_score>  (136) 
0.506591

>  <gnina_score_min>  (136) 
5.786

>  <inchikey>  (136) 
POUWHOXRJRRHBH-UHFFFAOYSA-N

>  <exports>  (136) 
['/opt/xchem-fragalysis-2/maxwin/BulkDock/OUTPUTS/openbind_a71ev2a_c2_elabs_1LOUU54.sdf', '/opt/xchem-fragalysis-2/maxwin/BulkDock/OUTPUTS/openbind_a71ev2a_c2_elabs_1LSYIDY.sdf']

>  <name>  (136) 
P570042

>  <ref_pdb>  (136) 
A2339a

>  <subsites>  (136) 
None

>  <HIPPO Pose ID>  (136) 
570042

>  <ref_mols>  (136) 
A2339a

>  <HIPPO Compound ID>  (136) 
411021

>  <tags>  (136) 
openbind_a71ev2a_c2_elabs,syndirella_product,openbind_a71ev2a_c2_elabs_scored,BulkDock Fragalysis export,openbind_a71ev2a_c2_elabs_scored_top80percent,openbind_a71ev2a_c2_elabs_scored_top80percent_despaghettified,syndirella_placed

>  <smina_score_min>  (136) 
-7.573

$$$$
P570043
     RDKit          3D

 20 22  0  0  0  0  0  0  0  0999 V2000
    9.2768   15.1516   19.9700 C   0  0  0  0  0  0  0  0  0  0  0  0
   10.7744   15.2224   20.0826 C   0  0  0  0  0  0  0  0  0  0  0  0
   11.5226   14.5887   18.9278 C   0  0  0  0  0  0  0  0  0  0  0  0
   11.2349   14.7722   21.4422 C   0  0  0  0  0  0  0  0  0  0  0  0
   10.5659   13.7033   22.0993 N   0  0  0  0  0  0  0  0  0  0  0  0
    9.5876   13.7158   23.2996 C   0  0  0  0  0  0  0  0  0  0  0  0
    9.2391   14.5973   23.9839 O   0  0  0  0  0  0  0  0  0  0  0  0
    9.1596   12.3407   23.5995 C   0  0  0  0  0  0  0  0  0  0  0  0
    9.7333   11.2800   23.0055 N   0  0  0  0  0  0  0  0  0  0  0  0
    9.1288   10.2136   23.5620 N   0  0  0  0  0  0  0  0  0  0  0  0
    9.5479    8.8926   23.1527 C   0  0  0  0  0  0  0  0  0  0  0  0
    8.1630   10.5486   24.4802 C   0  0  0  0  0  0  0  0  0  0  0  0
    7.2890    9.7802   25.2563 C   0  0  0  0  0  0  0  0  0  0  0  0
    6.4047   10.4427   26.1098 C   0  0  0  0  0  0  0  0  0  0  0  0
    6.4110   11.8276   26.1853 C   0  0  0  0  0  0  0  0  0  0  0  0
    5.5841   12.4369   27.0458 F   0  0  0  0  0  0  0  0  0  0  0  0
    7.2737   12.5961   25.4062 C   0  0  0  0  0  0  0  0  0  0  0  0
    8.1643   11.9394   24.5334 C   0  0  0  0  0  0  0  0  0  0  0  0
   12.6689   14.9999   21.8274 C   0  0  0  0  0  0  0  0  0  0  0  0
   11.6139   15.9322   22.2964 C   0  0  0  0  0  0  0  0  0  0  0  0
  1  2  1  0
  2  3  1  0
  2  4  1  0
  4  5  1  0
  5  6  1  0
  6  7  2  0
  6  8  1  0
  8  9  2  0
  9 10  1  0
 10 11  1  0
 10 12  1  0
 12 13  2  0
 13 14  1  0
 14 15  2  0
 15 16  1  0
 15 17  1  0
 17 18  2  0
  4 19  1  0
 19 20  1  0
 20  4  1  0
 18  8  1  0
 18 12  1  0
M  END
>  <alias>  (137) 
None

>  <rmsd(smina/fragmenstein)>  (137) 
0.946

>  <smiles>  (137) 
CC(C)C1(NC(=O)c2nn(C)c3ccc(F)cc23)CC1

>  <gnina_score>  (137) 
5.718

>  <inspiration_score>  (137) 
None

>  <energy_score>  (137) 
-38.603231

>  <distance_score>  (137) 
0.650379

>  <gnina_score_min>  (137) 
5.779

>  <inchikey>  (137) 
HNIOUJZFZDPMSE-UHFFFAOYSA-N

>  <exports>  (137) 
['/opt/xchem-fragalysis-2/maxwin/BulkDock/OUTPUTS/openbind_a71ev2a_c2_elabs_1LOUU54.sdf', '/opt/xchem-fragalysis-2/maxwin/BulkDock/OUTPUTS/openbind_a71ev2a_c2_elabs_1LSYIDY.sdf']

>  <name>  (137) 
P570043

>  <ref_pdb>  (137) 
A2339a

>  <subsites>  (137) 
None

>  <HIPPO Pose ID>  (137) 
570043

>  <ref_mols>  (137) 
A2339a

>  <HIPPO Compound ID>  (137) 
411022

>  <tags>  (137) 
openbind_a71ev2a_c2_elabs,syndirella_product,openbind_a71ev2a_c2_elabs_scored,BulkDock Fragalysis export,openbind_a71ev2a_c2_elabs_scored_top80percent,openbind_a71ev2a_c2_elabs_scored_top80percent_despaghettified,syndirella_placed

>  <smina_score_min>  (137) 
-7.378

$$$$
P570044
     RDKit          3D

 20 22  0  0  0  0  0  0  0  0999 V2000
    9.6050    8.8876   23.0830 C   0  0  0  0  0  0  0  0  0  0  0  0
    9.2187   10.2182   23.4952 N   0  0  0  0  0  0  0  0  0  0  0  0
    9.8286   11.2753   22.9252 N   0  0  0  0  0  0  0  0  0  0  0  0
    9.2897   12.3457   23.5286 C   0  0  0  0  0  0  0  0  0  0  0  0
    9.7143   13.7155   23.1908 C   0  0  0  0  0  0  0  0  0  0  0  0
    9.5067   14.5871   23.9428 O   0  0  0  0  0  0  0  0  0  0  0  0
   10.3931   13.7318   21.7952 N   0  0  0  0  0  0  0  0  0  0  0  0
   10.8668   14.8293   21.0029 C   0  0  0  0  0  0  0  0  0  0  0  0
   10.5738   16.1909   21.5708 C   0  0  0  0  0  0  0  0  0  0  0  0
   11.6921   16.5788   22.2348 F   0  0  0  0  0  0  0  0  0  0  0  0
   10.3288   17.0982   20.5925 F   0  0  0  0  0  0  0  0  0  0  0  0
   12.2546   14.6263   20.4252 C   0  0  0  0  0  0  0  0  0  0  0  0
   11.0946   14.7786   19.5081 C   0  0  0  0  0  0  0  0  0  0  0  0
    8.2911   11.9614   24.4707 C   0  0  0  0  0  0  0  0  0  0  0  0
    7.4040   12.6317   25.3372 C   0  0  0  0  0  0  0  0  0  0  0  0
    6.5260   11.8752   26.1136 C   0  0  0  0  0  0  0  0  0  0  0  0
    5.7026   12.4959   26.9691 F   0  0  0  0  0  0  0  0  0  0  0  0
    6.5002   10.4896   26.0420 C   0  0  0  0  0  0  0  0  0  0  0  0
    7.3759    9.8124   25.1921 C   0  0  0  0  0  0  0  0  0  0  0  0
    8.2613   10.5699   24.4162 C   0  0  0  0  0  0  0  0  0  0  0  0
  1  2  1  0
  2  3  1  0
  3  4  2  0
  4  5  1  0
  5  6  2  0
  5  7  1  0
  7  8  1  0
  8  9  1  0
  9 10  1  0
  9 11  1  0
  8 12  1  0
 12 13  1  0
  4 14  1  0
 14 15  2  0
 15 16  1  0
 16 17  1  0
 16 18  2  0
 18 19  1  0
 19 20  2  0
 20  2  1  0
 13  8  1  0
 20 14  1  0
M  END
>  <alias>  (138) 
None

>  <rmsd(smina/fragmenstein)>  (138) 
0.922

>  <smiles>  (138) 
Cn1nc(C(=O)NC2(C(F)F)CC2)c2cc(F)ccc21

>  <gnina_score>  (138) 
5.569

>  <inspiration_score>  (138) 
None

>  <energy_score>  (138) 
-3.997949

>  <distance_score>  (138) 
0.399896

>  <gnina_score_min>  (138) 
5.687

>  <inchikey>  (138) 
VDDLVBGBAAWHJW-UHFFFAOYSA-N

>  <exports>  (138) 
['/opt/xchem-fragalysis-2/maxwin/BulkDock/OUTPUTS/openbind_a71ev2a_c2_elabs_1LOUU54.sdf', '/opt/xchem-fragalysis-2/maxwin/BulkDock/OUTPUTS/openbind_a71ev2a_c2_elabs_1LSYIDY.sdf']

>  <name>  (138) 
P570044

>  <ref_pdb>  (138) 
A2339a

>  <subsites>  (138) 
None

>  <HIPPO Pose ID>  (138) 
570044

>  <ref_mols>  (138) 
A2339a

>  <HIPPO Compound ID>  (138) 
411024

>  <tags>  (138) 
openbind_a71ev2a_c2_elabs,syndirella_product,openbind_a71ev2a_c2_elabs_scored,BulkDock Fragalysis export,openbind_a71ev2a_c2_elabs_scored_top80percent,openbind_a71ev2a_c2_elabs_scored_top80percent_despaghettified,syndirella_placed

>  <smina_score_min>  (138) 
-7.781

$$$$
P570046
     RDKit          3D

 20 22  0  0  0  0  0  0  0  0999 V2000
    8.4751   16.1341   21.5010 C   0  0  0  0  0  0  0  0  0  0  0  0
    9.4938   16.9956   20.7663 C   0  0  0  0  0  0  0  0  0  0  0  0
   10.8307   16.5533   20.9624 O   0  0  0  0  0  0  0  0  0  0  0  0
   11.0230   15.1547   20.7582 C   0  0  1  0  0  0  0  0  0  0  0  0
   12.3955   14.5918   20.6945 C   0  0  0  0  0  0  0  0  0  0  0  0
   11.6571   14.5345   21.9811 C   0  0  2  0  0  0  0  0  0  0  0  0
   10.9307   13.4969   22.5728 N   0  0  0  0  0  0  0  0  0  0  0  0
    9.9709   13.5080   23.7764 C   0  0  0  0  0  0  0  0  0  0  0  0
    9.6926   14.3680   24.5137 O   0  0  0  0  0  0  0  0  0  0  0  0
    9.3236   12.1976   23.8823 C   0  0  0  0  0  0  0  0  0  0  0  0
    9.7755   11.1356   23.1935 N   0  0  0  0  0  0  0  0  0  0  0  0
    9.0814   10.0992   23.6961 N   0  0  0  0  0  0  0  0  0  0  0  0
    9.4740    8.7667   23.3029 C   0  0  0  0  0  0  0  0  0  0  0  0
    8.1010   10.4761   24.5835 C   0  0  0  0  0  0  0  0  0  0  0  0
    7.1519    9.7566   25.3162 C   0  0  0  0  0  0  0  0  0  0  0  0
    6.2873   10.4578   26.1585 C   0  0  0  0  0  0  0  0  0  0  0  0
    6.3778   11.8373   26.2604 C   0  0  0  0  0  0  0  0  0  0  0  0
    5.5607   12.4823   27.1029 F   0  0  0  0  0  0  0  0  0  0  0  0
    7.3270   12.5589   25.5412 C   0  0  0  0  0  0  0  0  0  0  0  0
    8.2109   11.8587   24.6959 C   0  0  0  0  0  0  0  0  0  0  0  0
  1  2  1  0
  2  3  1  0
  4  3  1  1
  4  5  1  0
  5  6  1  0
  6  7  1  6
  7  8  1  0
  8  9  2  0
  8 10  1  0
 10 11  2  0
 11 12  1  0
 12 13  1  0
 12 14  1  0
 14 15  2  0
 15 16  1  0
 16 17  2  0
 17 18  1  0
 17 19  1  0
 19 20  2  0
  6  4  1  0
 20 10  1  0
 20 14  1  0
M  END
>  <alias>  (139) 
None

>  <rmsd(smina/fragmenstein)>  (139) 
0.265

>  <smiles>  (139) 
CCO[C@H]1C[C@@H]1NC(=O)c1nn(C)c2ccc(F)cc12

>  <gnina_score>  (139) 
5.533

>  <inspiration_score>  (139) 
None

>  <energy_score>  (139) 
-7.06242

>  <distance_score>  (139) 
0.353704

>  <gnina_score_min>  (139) 
5.547

>  <inchikey>  (139) 
FTZRDQURYJZZPL-JQWIXIFHSA-N

>  <exports>  (139) 
['/opt/xchem-fragalysis-2/maxwin/BulkDock/OUTPUTS/openbind_a71ev2a_c2_elabs_1LOUU54.sdf', '/opt/xchem-fragalysis-2/maxwin/BulkDock/OUTPUTS/openbind_a71ev2a_c2_elabs_1LSYIDY.sdf']

>  <name>  (139) 
P570046

>  <ref_pdb>  (139) 
A2339a

>  <subsites>  (139) 
None

>  <HIPPO Pose ID>  (139) 
570046

>  <ref_mols>  (139) 
A2339a

>  <HIPPO Compound ID>  (139) 
370878

>  <tags>  (139) 
openbind_a71ev2a_c2_elabs,syndirella_product,openbind_a71ev2a_c2_elabs_scored,BulkDock Fragalysis export,openbind_a71ev2a_c2_elabs_scored_top80percent,openbind_a71ev2a_c2_elabs_scored_top80percent_despaghettified,syndirella_placed

>  <smina_score_min>  (139) 
-6.57

$$$$
P570049
     RDKit          3D

 20 22  0  0  0  0  0  0  0  0999 V2000
    9.5967    8.9929   23.1640 C   0  0  0  0  0  0  0  0  0  0  0  0
    9.1033   10.2804   23.6011 N   0  0  0  0  0  0  0  0  0  0  0  0
    9.6046   11.3970   23.0338 N   0  0  0  0  0  0  0  0  0  0  0  0
    8.9482   12.4019   23.6415 C   0  0  0  0  0  0  0  0  0  0  0  0
    9.1229   13.8089   23.2558 C   0  0  0  0  0  0  0  0  0  0  0  0
    8.6941   14.6582   23.9346 O   0  0  0  0  0  0  0  0  0  0  0  0
    9.8308   13.8845   21.8817 N   0  0  0  0  0  0  0  0  0  0  0  0
   10.2381   15.0121   21.1113 C   0  0  0  0  0  0  0  0  0  0  0  0
   11.0308   14.7747   19.8610 C   0  0  0  0  0  0  0  0  0  0  0  0
   12.4227   14.3092   20.2063 C   0  0  0  0  0  0  0  0  0  0  0  0
   13.1705   15.3752   20.7617 O   0  0  0  0  0  0  0  0  0  0  0  0
    9.4155   16.2705   21.1645 C   0  0  0  0  0  0  0  0  0  0  0  0
   10.7123   16.1747   21.9099 C   0  0  0  0  0  0  0  0  0  0  0  0
    8.0368   11.9182   24.6174 C   0  0  0  0  0  0  0  0  0  0  0  0
    7.1156   12.5017   25.5092 C   0  0  0  0  0  0  0  0  0  0  0  0
    6.3083   11.6675   26.2757 C   0  0  0  0  0  0  0  0  0  0  0  0
    5.4502   12.2098   27.1494 F   0  0  0  0  0  0  0  0  0  0  0  0
    6.3813   10.2868   26.1636 C   0  0  0  0  0  0  0  0  0  0  0  0
    7.3007    9.6985   25.2914 C   0  0  0  0  0  0  0  0  0  0  0  0
    8.1256   10.5339   24.5337 C   0  0  0  0  0  0  0  0  0  0  0  0
  1  2  1  0
  2  3  1  0
  3  4  2  0
  4  5  1  0
  5  6  2  0
  5  7  1  0
  7  8  1  0
  8  9  1  0
  9 10  1  0
 10 11  1  0
  8 12  1  0
 12 13  1  0
  4 14  1  0
 14 15  2  0
 15 16  1  0
 16 17  1  0
 16 18  2  0
 18 19  1  0
 19 20  2  0
 20  2  1  0
 13  8  1  0
 20 14  1  0
M  END
>  <alias>  (140) 
None

>  <rmsd(smina/fragmenstein)>  (140) 
1.204

>  <smiles>  (140) 
Cn1nc(C(=O)NC2(CCO)CC2)c2cc(F)ccc21

>  <gnina_score>  (140) 
5.446

>  <inspiration_score>  (140) 
None

>  <energy_score>  (140) 
-30.652039

>  <distance_score>  (140) 
0.858018

>  <gnina_score_min>  (140) 
5.384

>  <inchikey>  (140) 
QJPYLRPTRCBOIO-UHFFFAOYSA-N

>  <exports>  (140) 
['/opt/xchem-fragalysis-2/maxwin/BulkDock/OUTPUTS/openbind_a71ev2a_c2_elabs_1LOUU54.sdf', '/opt/xchem-fragalysis-2/maxwin/BulkDock/OUTPUTS/openbind_a71ev2a_c2_elabs_1LSYIDY.sdf']

>  <name>  (140) 
P570049

>  <ref_pdb>  (140) 
A2339a

>  <subsites>  (140) 
None

>  <HIPPO Pose ID>  (140) 
570049

>  <ref_mols>  (140) 
A2339a

>  <HIPPO Compound ID>  (140) 
411027

>  <tags>  (140) 
openbind_a71ev2a_c2_elabs,syndirella_product,openbind_a71ev2a_c2_elabs_scored,BulkDock Fragalysis export,openbind_a71ev2a_c2_elabs_scored_top80percent,openbind_a71ev2a_c2_elabs_scored_top80percent_despaghettified,syndirella_placed

>  <smina_score_min>  (140) 
-5.993

$$$$
P570053
     RDKit          3D

 20 22  0  0  0  0  0  0  0  0999 V2000
    9.5219    8.9364   23.2820 C   0  0  0  0  0  0  0  0  0  0  0  0
    9.0320   10.2524   23.6257 N   0  0  0  0  0  0  0  0  0  0  0  0
    9.5472   11.3159   22.9827 N   0  0  0  0  0  0  0  0  0  0  0  0
    8.9751   12.3807   23.5759 C   0  0  0  0  0  0  0  0  0  0  0  0
    9.3454   13.7551   23.1918 C   0  0  0  0  0  0  0  0  0  0  0  0
    9.0313   14.6671   23.8505 O   0  0  0  0  0  0  0  0  0  0  0  0
   10.2344   13.6907   21.9282 N   0  0  0  0  0  0  0  0  0  0  0  0
   10.9873   14.7038   21.2776 C   0  0  0  0  0  0  0  0  0  0  0  0
   12.1811   15.2065   22.0579 C   0  0  0  0  0  0  0  0  0  0  0  0
   12.5173   14.1741   23.0578 C   0  0  0  0  0  0  0  0  0  0  0  0
   12.7568   13.3916   23.8863 N   0  0  0  0  0  0  0  0  0  0  0  0
   10.1752   15.7236   20.5005 C   0  0  0  0  0  0  0  0  0  0  0  0
   11.1118   14.8138   19.7803 C   0  0  0  0  0  0  0  0  0  0  0  0
    8.0380   11.9794   24.5655 C   0  0  0  0  0  0  0  0  0  0  0  0
    7.1634   12.6371   25.4517 C   0  0  0  0  0  0  0  0  0  0  0  0
    6.3338   11.8670   26.2640 C   0  0  0  0  0  0  0  0  0  0  0  0
    5.5154   12.4759   27.1316 F   0  0  0  0  0  0  0  0  0  0  0  0
    6.3436   10.4807   26.2086 C   0  0  0  0  0  0  0  0  0  0  0  0
    7.2191    9.8165   25.3480 C   0  0  0  0  0  0  0  0  0  0  0  0
    8.0664   10.5864   24.5441 C   0  0  0  0  0  0  0  0  0  0  0  0
  1  2  1  0
  2  3  1  0
  3  4  2  0
  4  5  1  0
  5  6  2  0
  5  7  1  0
  7  8  1  0
  8  9  1  0
  9 10  1  0
 10 11  3  0
  8 12  1  0
 12 13  1  0
  4 14  1  0
 14 15  2  0
 15 16  1  0
 16 17  1  0
 16 18  2  0
 18 19  1  0
 19 20  2  0
 20  2  1  0
 13  8  1  0
 20 14  1  0
M  END
>  <alias>  (141) 
None

>  <rmsd(smina/fragmenstein)>  (141) 
0.477

>  <smiles>  (141) 
Cn1nc(C(=O)NC2(CC#N)CC2)c2cc(F)ccc21

>  <gnina_score>  (141) 
5.891

>  <inspiration_score>  (141) 
None

>  <energy_score>  (141) 
-33.338402

>  <distance_score>  (141) 
0.490753

>  <gnina_score_min>  (141) 
5.803

>  <inchikey>  (141) 
JAZLLGYKKIECJP-UHFFFAOYSA-N

>  <exports>  (141) 
['/opt/xchem-fragalysis-2/maxwin/BulkDock/OUTPUTS/openbind_a71ev2a_c2_elabs_1LOUU54.sdf', '/opt/xchem-fragalysis-2/maxwin/BulkDock/OUTPUTS/openbind_a71ev2a_c2_elabs_1LSYIDY.sdf']

>  <name>  (141) 
P570053

>  <ref_pdb>  (141) 
A2339a

>  <subsites>  (141) 
None

>  <HIPPO Pose ID>  (141) 
570053

>  <ref_mols>  (141) 
A2339a

>  <HIPPO Compound ID>  (141) 
411031

>  <tags>  (141) 
openbind_a71ev2a_c2_elabs,syndirella_product,openbind_a71ev2a_c2_elabs_scored,BulkDock Fragalysis export,openbind_a71ev2a_c2_elabs_scored_top80percent,openbind_a71ev2a_c2_elabs_scored_top80percent_despaghettified,syndirella_placed

>  <smina_score_min>  (141) 
-7.356

$$$$
P570057
     RDKit          3D

 20 22  0  0  0  0  0  0  0  0999 V2000
    9.4129   17.7208   20.6261 C   0  0  0  0  0  0  0  0  0  0  0  0
   10.0748   16.5544   19.9505 C   0  0  0  0  0  0  0  0  0  0  0  0
   10.5434   15.4138   20.8066 C   0  0  1  0  0  0  0  0  0  0  0  0
    9.9669   14.1748   20.2563 C   0  0  0  0  0  0  0  0  0  0  0  0
   11.9783   15.3299   21.2751 C   0  0  0  0  0  0  0  0  0  0  0  0
   10.8852   15.3882   22.2954 C   0  0  2  0  0  0  0  0  0  0  0  0
   10.3921   14.2411   22.9633 N   0  0  0  0  0  0  0  0  0  0  0  0
    9.3553   14.1097   24.0833 C   0  0  0  0  0  0  0  0  0  0  0  0
    8.7941   14.9282   24.6930 O   0  0  0  0  0  0  0  0  0  0  0  0
    9.0623   12.6630   24.2331 C   0  0  0  0  0  0  0  0  0  0  0  0
    9.7291   11.7209   23.5281 N   0  0  0  0  0  0  0  0  0  0  0  0
    9.0908   10.5638   23.8141 N   0  0  0  0  0  0  0  0  0  0  0  0
    9.5498    9.3278   23.2096 C   0  0  0  0  0  0  0  0  0  0  0  0
    8.0669   10.7210   24.7169 C   0  0  0  0  0  0  0  0  0  0  0  0
    7.1916    9.8104   25.3170 C   0  0  0  0  0  0  0  0  0  0  0  0
    6.2288   10.3091   26.1972 C   0  0  0  0  0  0  0  0  0  0  0  0
    6.1453   11.6727   26.4450 C   0  0  0  0  0  0  0  0  0  0  0  0
    5.2305   12.1278   27.3094 F   0  0  0  0  0  0  0  0  0  0  0  0
    7.0100   12.5796   25.8429 C   0  0  0  0  0  0  0  0  0  0  0  0
    8.0063   12.0863   24.9828 C   0  0  0  0  0  0  0  0  0  0  0  0
  1  2  1  0
  3  2  1  0
  3  4  1  6
  3  5  1  0
  5  6  1  0
  6  7  1  6
  7  8  1  0
  8  9  2  0
  8 10  1  0
 10 11  2  0
 11 12  1  0
 12 13  1  0
 12 14  1  0
 14 15  2  0
 15 16  1  0
 16 17  2  0
 17 18  1  0
 17 19  1  0
 19 20  2  0
  6  3  1  0
 20 10  1  0
 20 14  1  0
M  END
>  <alias>  (142) 
None

>  <rmsd(smina/fragmenstein)>  (142) 
0.383

>  <smiles>  (142) 
CC[C@@]1(C)C[C@@H]1NC(=O)c1nn(C)c2ccc(F)cc12

>  <gnina_score>  (142) 
5.51

>  <inspiration_score>  (142) 
None

>  <energy_score>  (142) 
-17.110947

>  <distance_score>  (142) 
0.695498

>  <gnina_score_min>  (142) 
5.639

>  <inchikey>  (142) 
IQTUDINKSRKHLB-WFASDCNBSA-N

>  <exports>  (142) 
['/opt/xchem-fragalysis-2/maxwin/BulkDock/OUTPUTS/openbind_a71ev2a_c2_elabs_1LOUU54.sdf', '/opt/xchem-fragalysis-2/maxwin/BulkDock/OUTPUTS/openbind_a71ev2a_c2_elabs_1LSYIDY.sdf']

>  <name>  (142) 
P570057

>  <ref_pdb>  (142) 
A2339a

>  <subsites>  (142) 
None

>  <HIPPO Pose ID>  (142) 
570057

>  <ref_mols>  (142) 
A2339a

>  <HIPPO Compound ID>  (142) 
411035

>  <tags>  (142) 
openbind_a71ev2a_c2_elabs,syndirella_product,openbind_a71ev2a_c2_elabs_scored,BulkDock Fragalysis export,openbind_a71ev2a_c2_elabs_scored_top80percent,openbind_a71ev2a_c2_elabs_scored_top80percent_despaghettified,syndirella_placed

>  <smina_score_min>  (142) 
-6.938

$$$$
P570083
     RDKit          3D

 21 23  0  0  0  0  0  0  0  0999 V2000
    8.3239   19.2013   19.7518 C   0  0  0  0  0  0  0  0  0  0  0  0
    9.0150   18.2971   20.7534 C   0  0  0  0  0  0  0  0  0  0  0  0
    9.6023   17.1215   20.1910 O   0  0  0  0  0  0  0  0  0  0  0  0
    9.3437   15.9651   21.0028 C   0  0  0  0  0  0  0  0  0  0  0  0
   10.5322   15.0190   21.1718 C   0  0  0  0  0  0  0  0  0  0  0  0
   10.2059   13.8899   21.9747 N   0  0  0  0  0  0  0  0  0  0  0  0
    9.6255   13.8093   23.4044 C   0  0  0  0  0  0  0  0  0  0  0  0
    9.3961   14.6548   24.1773 O   0  0  0  0  0  0  0  0  0  0  0  0
    9.2552   12.4141   23.6987 C   0  0  0  0  0  0  0  0  0  0  0  0
    9.8158   11.3761   23.0550 N   0  0  0  0  0  0  0  0  0  0  0  0
    9.1963   10.2895   23.5619 N   0  0  0  0  0  0  0  0  0  0  0  0
    9.5894    8.9776   23.0964 C   0  0  0  0  0  0  0  0  0  0  0  0
    8.2268   10.5947   24.4870 C   0  0  0  0  0  0  0  0  0  0  0  0
    7.3358    9.8002   25.2169 C   0  0  0  0  0  0  0  0  0  0  0  0
    6.4361   10.4353   26.0751 C   0  0  0  0  0  0  0  0  0  0  0  0
    6.4422   11.8173   26.1973 C   0  0  0  0  0  0  0  0  0  0  0  0
    5.5948   12.3998   27.0563 F   0  0  0  0  0  0  0  0  0  0  0  0
    7.3273   12.6104   25.4689 C   0  0  0  0  0  0  0  0  0  0  0  0
    8.2430   11.9815   24.6017 C   0  0  0  0  0  0  0  0  0  0  0  0
   11.5280   14.9274   20.0456 C   0  0  0  0  0  0  0  0  0  0  0  0
   11.9241   15.5734   21.3386 C   0  0  0  0  0  0  0  0  0  0  0  0
  1  2  1  0
  2  3  1  0
  3  4  1  0
  4  5  1  0
  5  6  1  0
  6  7  1  0
  7  8  2  0
  7  9  1  0
  9 10  2  0
 10 11  1  0
 11 12  1  0
 11 13  1  0
 13 14  2  0
 14 15  1  0
 15 16  2  0
 16 17  1  0
 16 18  1  0
 18 19  2  0
  5 20  1  0
 20 21  1  0
 21  5  1  0
 19  9  1  0
 19 13  1  0
M  END
>  <alias>  (143) 
None

>  <rmsd(smina/fragmenstein)>  (143) 
0.243

>  <smiles>  (143) 
CCOCC1(NC(=O)c2nn(C)c3ccc(F)cc23)CC1

>  <gnina_score>  (143) 
5.66

>  <inspiration_score>  (143) 
None

>  <energy_score>  (143) 
-35.76375

>  <distance_score>  (143) 
0.453576

>  <gnina_score_min>  (143) 
5.749

>  <inchikey>  (143) 
MJDHGSDFHNYOCQ-UHFFFAOYSA-N

>  <exports>  (143) 
['/opt/xchem-fragalysis-2/maxwin/BulkDock/OUTPUTS/openbind_a71ev2a_c2_elabs_1LOUU54.sdf', '/opt/xchem-fragalysis-2/maxwin/BulkDock/OUTPUTS/openbind_a71ev2a_c2_elabs_1LSYIDY.sdf']

>  <name>  (143) 
P570083

>  <ref_pdb>  (143) 
A2339a

>  <subsites>  (143) 
None

>  <HIPPO Pose ID>  (143) 
570083

>  <ref_mols>  (143) 
A2339a

>  <HIPPO Compound ID>  (143) 
411048

>  <tags>  (143) 
openbind_a71ev2a_c2_elabs,syndirella_product,openbind_a71ev2a_c2_elabs_scored,BulkDock Fragalysis export,openbind_a71ev2a_c2_elabs_scored_top80percent,openbind_a71ev2a_c2_elabs_scored_top80percent_despaghettified,syndirella_placed

>  <smina_score_min>  (143) 
-6.879

$$$$
P570087
     RDKit          3D

 21 23  0  0  0  0  0  0  0  0999 V2000
    9.4273    8.6920   23.3956 C   0  0  0  0  0  0  0  0  0  0  0  0
    8.9736   10.0130   23.7577 N   0  0  0  0  0  0  0  0  0  0  0  0
    9.5709   11.0676   23.1752 N   0  0  0  0  0  0  0  0  0  0  0  0
    9.0024   12.1286   23.7706 C   0  0  0  0  0  0  0  0  0  0  0  0
    9.3682   13.4943   23.4289 C   0  0  0  0  0  0  0  0  0  0  0  0
    8.8734   14.3892   23.9899 O   0  0  0  0  0  0  0  0  0  0  0  0
   10.3532   13.4801   22.2454 N   0  0  0  0  0  0  0  0  0  0  0  0
   10.9988   14.5437   21.5761 C   0  0  1  0  0  0  0  0  0  0  0  0
   12.0175   15.1708   22.4619 C   0  0  0  0  0  0  0  0  0  0  0  0
   11.3928   15.4667   23.7181 O   0  0  0  0  0  0  0  0  0  0  0  0
   11.1613   14.7214   20.0986 C   0  0  0  0  0  0  0  0  0  0  0  0
   10.0196   15.4243   20.7870 C   0  0  0  0  0  0  0  0  0  0  0  0
   10.0223   16.9175   20.7938 C   0  0  0  0  0  0  0  0  0  0  0  0
    8.6464   14.8901   20.5652 C   0  0  0  0  0  0  0  0  0  0  0  0
    8.0079   11.7539   24.7035 C   0  0  0  0  0  0  0  0  0  0  0  0
    7.1197   12.4373   25.5580 C   0  0  0  0  0  0  0  0  0  0  0  0
    6.2412   11.6956   26.3384 C   0  0  0  0  0  0  0  0  0  0  0  0
    5.4193   12.3284   27.1846 F   0  0  0  0  0  0  0  0  0  0  0  0
    6.2151   10.3128   26.2741 C   0  0  0  0  0  0  0  0  0  0  0  0
    7.0934    9.6329   25.4276 C   0  0  0  0  0  0  0  0  0  0  0  0
    7.9927   10.3674   24.6546 C   0  0  0  0  0  0  0  0  0  0  0  0
  1  2  1  0
  2  3  1  0
  3  4  2  0
  4  5  1  0
  5  6  2  0
  5  7  1  0
  8  7  1  0
  8  9  1  1
  9 10  1  0
  8 11  1  0
 11 12  1  0
 12 13  1  0
 12 14  1  0
  4 15  1  0
 15 16  2  0
 16 17  1  0
 17 18  1  0
 17 19  2  0
 19 20  1  0
 20 21  2  0
 21  2  1  0
 12  8  1  0
 21 15  1  0
M  END
>  <alias>  (144) 
None

>  <rmsd(smina/fragmenstein)>  (144) 
0.811

>  <smiles>  (144) 
Cn1nc(C(=O)N[C@@]2(CO)CC2(C)C)c2cc(F)ccc21

>  <gnina_score>  (144) 
5.634

>  <inspiration_score>  (144) 
None

>  <energy_score>  (144) 
-28.094692

>  <distance_score>  (144) 
0.473535

>  <gnina_score_min>  (144) 
5.769

>  <inchikey>  (144) 
AGVBFTDEYQLGCN-OAHLLOKOSA-N

>  <exports>  (144) 
['/opt/xchem-fragalysis-2/maxwin/BulkDock/OUTPUTS/openbind_a71ev2a_c2_elabs_1LOUU54.sdf', '/opt/xchem-fragalysis-2/maxwin/BulkDock/OUTPUTS/openbind_a71ev2a_c2_elabs_1LSYIDY.sdf']

>  <name>  (144) 
P570087

>  <ref_pdb>  (144) 
A2339a

>  <subsites>  (144) 
None

>  <HIPPO Pose ID>  (144) 
570087

>  <ref_mols>  (144) 
A2339a

>  <HIPPO Compound ID>  (144) 
411051

>  <tags>  (144) 
openbind_a71ev2a_c2_elabs,syndirella_product,openbind_a71ev2a_c2_elabs_scored,BulkDock Fragalysis export,openbind_a71ev2a_c2_elabs_scored_top80percent,openbind_a71ev2a_c2_elabs_scored_top80percent_despaghettified,syndirella_placed

>  <smina_score_min>  (144) 
-6.678

$$$$
P570097
     RDKit          3D

 21 23  0  0  0  0  0  0  0  0999 V2000
   11.0936   15.0277   24.3957 C   0  0  0  0  0  0  0  0  0  0  0  0
   11.6734   15.2113   22.9805 C   0  0  0  0  0  0  0  0  0  0  0  0
   10.8556   14.6097   21.8842 C   0  0  2  0  0  0  0  0  0  0  0  0
   10.1500   13.5083   22.3827 N   0  0  0  0  0  0  0  0  0  0  0  0
    8.8494   13.4420   23.1909 C   0  0  0  0  0  0  0  0  0  0  0  0
    8.1132   14.2864   23.5070 O   0  0  0  0  0  0  0  0  0  0  0  0
    8.6618   12.0846   23.6519 C   0  0  0  0  0  0  0  0  0  0  0  0
    9.3804   11.0587   23.1716 N   0  0  0  0  0  0  0  0  0  0  0  0
    8.8519    9.9871   23.7866 N   0  0  0  0  0  0  0  0  0  0  0  0
    9.3646    8.6847   23.4355 C   0  0  0  0  0  0  0  0  0  0  0  0
    7.8722   10.3161   24.6962 C   0  0  0  0  0  0  0  0  0  0  0  0
    7.0330    9.5679   25.5157 C   0  0  0  0  0  0  0  0  0  0  0  0
    6.1521   10.2282   26.3762 C   0  0  0  0  0  0  0  0  0  0  0  0
    6.1124   11.6113   26.4036 C   0  0  0  0  0  0  0  0  0  0  0  0
    5.2984   12.2307   27.2664 F   0  0  0  0  0  0  0  0  0  0  0  0
    6.9048   12.3682   25.5534 C   0  0  0  0  0  0  0  0  0  0  0  0
    7.7815   11.6982   24.6789 C   0  0  0  0  0  0  0  0  0  0  0  0
   11.4188   14.7605   20.4963 C   0  0  0  0  0  0  0  0  0  0  0  0
   10.1314   15.4562   20.8409 C   0  0  0  0  0  0  0  0  0  0  0  0
    8.8783   14.9014   20.2844 C   0  0  0  0  0  0  0  0  0  0  0  0
   10.0726   16.9441   20.8531 C   0  0  0  0  0  0  0  0  0  0  0  0
  1  2  1  0
  3  2  1  1
  3  4  1  0
  4  5  1  0
  5  6  2  0
  5  7  1  0
  7  8  2  0
  8  9  1  0
  9 10  1  0
  9 11  1  0
 11 12  2  0
 12 13  1  0
 13 14  2  0
 14 15  1  0
 14 16  1  0
 16 17  2  0
  3 18  1  0
 18 19  1  0
 19 20  1  0
 19 21  1  0
 19  3  1  0
 17  7  1  0
 17 11  1  0
M  END
>  <alias>  (145) 
None

>  <rmsd(smina/fragmenstein)>  (145) 
0.293

>  <smiles>  (145) 
CC[C@]1(NC(=O)c2nn(C)c3ccc(F)cc23)CC1(C)C

>  <gnina_score>  (145) 
5.852

>  <inspiration_score>  (145) 
None

>  <energy_score>  (145) 
-26.808754

>  <distance_score>  (145) 
0.650309

>  <gnina_score_min>  (145) 
5.891

>  <inchikey>  (145) 
LVFSHXRMSDOTPS-INIZCTEOSA-N

>  <exports>  (145) 
['/opt/xchem-fragalysis-2/maxwin/BulkDock/OUTPUTS/openbind_a71ev2a_c2_elabs_1LOUU54.sdf', '/opt/xchem-fragalysis-2/maxwin/BulkDock/OUTPUTS/openbind_a71ev2a_c2_elabs_1LSYIDY.sdf']

>  <name>  (145) 
P570097

>  <ref_pdb>  (145) 
A2339a

>  <subsites>  (145) 
None

>  <HIPPO Pose ID>  (145) 
570097

>  <ref_mols>  (145) 
A2339a

>  <HIPPO Compound ID>  (145) 
411058

>  <tags>  (145) 
openbind_a71ev2a_c2_elabs,syndirella_product,openbind_a71ev2a_c2_elabs_scored,BulkDock Fragalysis export,openbind_a71ev2a_c2_elabs_scored_top80percent,openbind_a71ev2a_c2_elabs_scored_top80percent_despaghettified,syndirella_placed

>  <smina_score_min>  (145) 
-5.923

$$$$
P570103
     RDKit          3D

 21 23  0  0  0  0  0  0  0  0999 V2000
    9.5978    8.8780   23.1364 C   0  0  0  0  0  0  0  0  0  0  0  0
    9.1551   10.1902   23.5509 N   0  0  0  0  0  0  0  0  0  0  0  0
    9.7216   11.2715   22.9820 N   0  0  0  0  0  0  0  0  0  0  0  0
    9.1045   12.3157   23.5557 C   0  0  0  0  0  0  0  0  0  0  0  0
    9.4201   13.6987   23.1771 C   0  0  0  0  0  0  0  0  0  0  0  0
    8.9686   14.5831   23.7918 O   0  0  0  0  0  0  0  0  0  0  0  0
   10.3449   13.7090   21.9375 N   0  0  0  0  0  0  0  0  0  0  0  0
   10.9752   14.7936   21.2629 C   0  0  2  0  0  0  0  0  0  0  0  0
   10.8663   16.0711   22.0173 C   0  0  0  0  0  0  0  0  0  0  0  0
   11.8178   16.9430   21.6164 F   0  0  0  0  0  0  0  0  0  0  0  0
   10.9847   14.9572   19.7569 C   0  0  0  0  0  0  0  0  0  0  0  0
   12.2167   14.5872   20.4753 C   0  0  0  0  0  0  0  0  0  0  0  0
   13.2712   15.4405   20.6429 F   0  0  0  0  0  0  0  0  0  0  0  0
   12.7350   13.3429   20.2503 F   0  0  0  0  0  0  0  0  0  0  0  0
    8.1441   11.8946   24.5158 C   0  0  0  0  0  0  0  0  0  0  0  0
    7.2376   12.5319   25.3868 C   0  0  0  0  0  0  0  0  0  0  0  0
    6.4005   11.7449   26.1745 C   0  0  0  0  0  0  0  0  0  0  0  0
    5.5606   12.3367   27.0340 F   0  0  0  0  0  0  0  0  0  0  0  0
    6.4297   10.3601   26.1035 C   0  0  0  0  0  0  0  0  0  0  0  0
    7.3291    9.7183   25.2497 C   0  0  0  0  0  0  0  0  0  0  0  0
    8.1829   10.5048   24.4706 C   0  0  0  0  0  0  0  0  0  0  0  0
  1  2  1  0
  2  3  1  0
  3  4  2  0
  4  5  1  0
  5  6  2  0
  5  7  1  0
  8  7  1  0
  8  9  1  1
  9 10  1  0
  8 11  1  0
 11 12  1  0
 12 13  1  0
 12 14  1  0
  4 15  1  0
 15 16  2  0
 16 17  1  0
 17 18  1  0
 17 19  2  0
 19 20  1  0
 20 21  2  0
 21  2  1  0
 12  8  1  0
 21 15  1  0
M  END
>  <alias>  (146) 
None

>  <rmsd(smina/fragmenstein)>  (146) 
1.435

>  <smiles>  (146) 
Cn1nc(C(=O)N[C@]2(CF)CC2(F)F)c2cc(F)ccc21

>  <gnina_score>  (146) 
5.412

>  <inspiration_score>  (146) 
None

>  <energy_score>  (146) 
-9.672148

>  <distance_score>  (146) 
0.354331

>  <gnina_score_min>  (146) 
5.779

>  <inchikey>  (146) 
CXCMHVUVNWBHDT-LBPRGKRZSA-N

>  <exports>  (146) 
['/opt/xchem-fragalysis-2/maxwin/BulkDock/OUTPUTS/openbind_a71ev2a_c2_elabs_1LOUU54.sdf', '/opt/xchem-fragalysis-2/maxwin/BulkDock/OUTPUTS/openbind_a71ev2a_c2_elabs_1LSYIDY.sdf']

>  <name>  (146) 
P570103

>  <ref_pdb>  (146) 
A2339a

>  <subsites>  (146) 
None

>  <HIPPO Pose ID>  (146) 
570103

>  <ref_mols>  (146) 
A2339a

>  <HIPPO Compound ID>  (146) 
411062

>  <tags>  (146) 
openbind_a71ev2a_c2_elabs,syndirella_product,openbind_a71ev2a_c2_elabs_scored,BulkDock Fragalysis export,openbind_a71ev2a_c2_elabs_scored_top80percent,openbind_a71ev2a_c2_elabs_scored_top80percent_despaghettified,syndirella_placed

>  <smina_score_min>  (146) 
-7.583

$$$$
P570105
     RDKit          3D

 21 23  0  0  0  0  0  0  0  0999 V2000
    9.5146    9.1551   23.1657 C   0  0  0  0  0  0  0  0  0  0  0  0
    9.0611   10.4120   23.7248 N   0  0  0  0  0  0  0  0  0  0  0  0
    9.6773   11.5576   23.3579 N   0  0  0  0  0  0  0  0  0  0  0  0
    9.0780   12.5104   24.0996 C   0  0  0  0  0  0  0  0  0  0  0  0
    9.4828   13.9248   24.0355 C   0  0  0  0  0  0  0  0  0  0  0  0
    9.0554   14.7118   24.7800 O   0  0  0  0  0  0  0  0  0  0  0  0
   10.4045   14.1009   22.8247 N   0  0  0  0  0  0  0  0  0  0  0  0
   10.9130   15.2693   22.2232 C   0  0  2  0  0  0  0  0  0  0  0  0
   10.3237   15.7215   20.8961 C   0  0  0  0  0  0  0  0  0  0  0  0
    9.3805   14.8033   20.2126 C   0  0  0  0  0  0  0  0  0  0  0  0
    9.9064   17.1473   20.7253 C   0  0  0  0  0  0  0  0  0  0  0  0
   11.7546   15.3018   21.0000 C   0  0  0  0  0  0  0  0  0  0  0  0
   12.2099   14.1249   20.4562 F   0  0  0  0  0  0  0  0  0  0  0  0
   12.8158   16.1672   21.0237 F   0  0  0  0  0  0  0  0  0  0  0  0
    8.0263   11.9770   24.8829 C   0  0  0  0  0  0  0  0  0  0  0  0
    7.0714   12.5076   25.7693 C   0  0  0  0  0  0  0  0  0  0  0  0
    6.1997   11.6336   26.4082 C   0  0  0  0  0  0  0  0  0  0  0  0
    5.3175   12.1257   27.2867 F   0  0  0  0  0  0  0  0  0  0  0  0
    6.2505   10.2656   26.1842 C   0  0  0  0  0  0  0  0  0  0  0  0
    7.1881    9.7314   25.2968 C   0  0  0  0  0  0  0  0  0  0  0  0
    8.0603   10.6078   24.6469 C   0  0  0  0  0  0  0  0  0  0  0  0
  1  2  1  0
  2  3  1  0
  3  4  2  0
  4  5  1  0
  5  6  2  0
  5  7  1  0
  8  7  1  6
  8  9  1  0
  9 10  1  0
  9 11  1  0
  9 12  1  0
 12 13  1  0
 12 14  1  0
  4 15  1  0
 15 16  2  0
 16 17  1  0
 17 18  1  0
 17 19  2  0
 19 20  1  0
 20 21  2  0
 21  2  1  0
 12  8  1  0
 21 15  1  0
M  END
>  <alias>  (147) 
None

>  <rmsd(smina/fragmenstein)>  (147) 
0.24

>  <smiles>  (147) 
Cn1nc(C(=O)N[C@@H]2C(C)(C)C2(F)F)c2cc(F)ccc21

>  <gnina_score>  (147) 
5.679

>  <inspiration_score>  (147) 
None

>  <energy_score>  (147) 
-12.297835

>  <distance_score>  (147) 
0.58041

>  <gnina_score_min>  (147) 
5.604

>  <inchikey>  (147) 
ISMMPIFQTORRTL-GFCCVEGCSA-N

>  <exports>  (147) 
['/opt/xchem-fragalysis-2/maxwin/BulkDock/OUTPUTS/openbind_a71ev2a_c2_elabs_1LOUU54.sdf', '/opt/xchem-fragalysis-2/maxwin/BulkDock/OUTPUTS/openbind_a71ev2a_c2_elabs_1LSYIDY.sdf']

>  <name>  (147) 
P570105

>  <ref_pdb>  (147) 
A2339a

>  <subsites>  (147) 
None

>  <HIPPO Pose ID>  (147) 
570105

>  <ref_mols>  (147) 
A2339a

>  <HIPPO Compound ID>  (147) 
411063

>  <tags>  (147) 
openbind_a71ev2a_c2_elabs,syndirella_product,openbind_a71ev2a_c2_elabs_scored,BulkDock Fragalysis export,openbind_a71ev2a_c2_elabs_scored_top80percent,openbind_a71ev2a_c2_elabs_scored_top80percent_despaghettified,syndirella_placed

>  <smina_score_min>  (147) 
-7.541

$$$$
P570107
     RDKit          3D

 21 23  0  0  0  0  0  0  0  0999 V2000
    9.6016    8.5718   23.2140 C   0  0  0  0  0  0  0  0  0  0  0  0
    9.2889    9.9403   23.5389 N   0  0  0  0  0  0  0  0  0  0  0  0
    9.9969   10.9167   22.9416 N   0  0  0  0  0  0  0  0  0  0  0  0
    9.6304   12.0280   23.5909 C   0  0  0  0  0  0  0  0  0  0  0  0
   10.2047   13.3446   23.3045 C   0  0  0  0  0  0  0  0  0  0  0  0
   10.1615   14.1694   24.1327 O   0  0  0  0  0  0  0  0  0  0  0  0
   10.7007   13.4192   21.8364 N   0  0  0  0  0  0  0  0  0  0  0  0
   11.1487   14.5284   21.0692 C   0  0  0  0  0  0  0  0  0  0  0  0
   10.7445   15.8070   21.6820 C   0  0  0  0  0  0  0  0  0  0  0  0
   11.6442   16.5407   22.0691 O   0  0  0  0  0  0  0  0  0  0  0  0
    9.2716   16.0827   21.8479 C   0  0  0  0  0  0  0  0  0  0  0  0
    8.0027   14.7280   21.3092 Br  0  0  0  0  0  0  0  0  0  0  0  0
   11.1827   14.6510   19.5527 C   0  0  0  0  0  0  0  0  0  0  0  0
   12.4362   14.4180   20.3136 C   0  0  0  0  0  0  0  0  0  0  0  0
    8.5285   11.7795   24.4677 C   0  0  0  0  0  0  0  0  0  0  0  0
    7.6767   12.5591   25.2798 C   0  0  0  0  0  0  0  0  0  0  0  0
    6.6909   11.9178   26.0316 C   0  0  0  0  0  0  0  0  0  0  0  0
    5.9101   12.6353   26.8509 F   0  0  0  0  0  0  0  0  0  0  0  0
    6.5262   10.5423   25.9863 C   0  0  0  0  0  0  0  0  0  0  0  0
    7.3539    9.7630   25.1778 C   0  0  0  0  0  0  0  0  0  0  0  0
    8.3392   10.4033   24.4171 C   0  0  0  0  0  0  0  0  0  0  0  0
  1  2  1  0
  2  3  1  0
  3  4  2  0
  4  5  1  0
  5  6  2  0
  5  7  1  0
  7  8  1  0
  8  9  1  0
  9 10  2  0
  9 11  1  0
 11 12  1  0
  8 13  1  0
 13 14  1  0
  4 15  1  0
 15 16  2  0
 16 17  1  0
 17 18  1  0
 17 19  2  0
 19 20  1  0
 20 21  2  0
 21  2  1  0
 14  8  1  0
 21 15  1  0
M  END
>  <alias>  (148) 
None

>  <rmsd(smina/fragmenstein)>  (148) 
1.246

>  <smiles>  (148) 
Cn1nc(C(=O)NC2(C(=O)CBr)CC2)c2cc(F)ccc21

>  <gnina_score>  (148) 
5.695

>  <inspiration_score>  (148) 
None

>  <energy_score>  (148) 
-7.701416

>  <distance_score>  (148) 
0.499076

>  <gnina_score_min>  (148) 
5.597

>  <inchikey>  (148) 
DOQSMZHGZIBPBN-UHFFFAOYSA-N

>  <exports>  (148) 
['/opt/xchem-fragalysis-2/maxwin/BulkDock/OUTPUTS/openbind_a71ev2a_c2_elabs_1LOUU54.sdf', '/opt/xchem-fragalysis-2/maxwin/BulkDock/OUTPUTS/openbind_a71ev2a_c2_elabs_1LSYIDY.sdf']

>  <name>  (148) 
P570107

>  <ref_pdb>  (148) 
A2339a

>  <subsites>  (148) 
None

>  <HIPPO Pose ID>  (148) 
570107

>  <ref_mols>  (148) 
A2339a

>  <HIPPO Compound ID>  (148) 
411066

>  <tags>  (148) 
openbind_a71ev2a_c2_elabs,syndirella_product,openbind_a71ev2a_c2_elabs_scored,BulkDock Fragalysis export,openbind_a71ev2a_c2_elabs_scored_top80percent,openbind_a71ev2a_c2_elabs_scored_top80percent_despaghettified,syndirella_placed

>  <smina_score_min>  (148) 
-5.716

$$$$
P570108
     RDKit          3D

 21 23  0  0  0  0  0  0  0  0999 V2000
   13.1168   15.3702   21.5740 C   0  0  0  0  0  0  0  0  0  0  0  0
   12.0854   16.3052   21.7977 O   0  0  0  0  0  0  0  0  0  0  0  0
   10.8703   15.7352   22.2413 C   0  0  2  0  0  0  0  0  0  0  0  0
   10.9830   15.1944   23.6829 C   0  0  0  0  0  0  0  0  0  0  0  0
   10.3174   14.7485   21.2338 C   0  0  0  0  0  0  0  0  0  0  0  0
    9.8138   13.6224   21.9044 N   0  0  0  0  0  0  0  0  0  0  0  0
    8.6305   13.4851   22.8733 C   0  0  0  0  0  0  0  0  0  0  0  0
    7.8367   14.2670   23.2107 O   0  0  0  0  0  0  0  0  0  0  0  0
    8.6478   12.1603   23.4788 C   0  0  0  0  0  0  0  0  0  0  0  0
    9.4430   11.1731   23.0374 N   0  0  0  0  0  0  0  0  0  0  0  0
    8.9846   10.0837   23.6844 N   0  0  0  0  0  0  0  0  0  0  0  0
    9.5339    8.7957   23.3301 C   0  0  0  0  0  0  0  0  0  0  0  0
    8.0024   10.3756   24.6029 C   0  0  0  0  0  0  0  0  0  0  0  0
    7.1994    9.5894   25.4258 C   0  0  0  0  0  0  0  0  0  0  0  0
    6.2921   10.2168   26.2845 C   0  0  0  0  0  0  0  0  0  0  0  0
    6.1982   11.5984   26.3111 C   0  0  0  0  0  0  0  0  0  0  0  0
    5.3623   12.1853   27.1765 F   0  0  0  0  0  0  0  0  0  0  0  0
    6.9482   12.3865   25.4485 C   0  0  0  0  0  0  0  0  0  0  0  0
    7.8467   11.7530   24.5683 C   0  0  0  0  0  0  0  0  0  0  0  0
   10.7363   14.8191   19.7763 C   0  0  0  0  0  0  0  0  0  0  0  0
    9.4198   15.3545   20.1889 C   0  0  0  0  0  0  0  0  0  0  0  0
  1  2  1  0
  2  3  1  0
  3  4  1  1
  3  5  1  0
  5  6  1  0
  6  7  1  0
  7  8  2  0
  7  9  1  0
  9 10  2  0
 10 11  1  0
 11 12  1  0
 11 13  1  0
 13 14  2  0
 14 15  1  0
 15 16  2  0
 16 17  1  0
 16 18  1  0
 18 19  2  0
  5 20  1  0
 20 21  1  0
 21  5  1  0
 19  9  1  0
 19 13  1  0
M  END
>  <alias>  (149) 
None

>  <rmsd(smina/fragmenstein)>  (149) 
0.956

>  <smiles>  (149) 
CO[C@H](C)C1(NC(=O)c2nn(C)c3ccc(F)cc23)CC1

>  <gnina_score>  (149) 
5.735

>  <inspiration_score>  (149) 
None

>  <energy_score>  (149) 
-32.35545

>  <distance_score>  (149) 
0.872336

>  <gnina_score_min>  (149) 
5.68

>  <inchikey>  (149) 
KYXMPMGAVCHIIJ-SECBINFHSA-N

>  <exports>  (149) 
['/opt/xchem-fragalysis-2/maxwin/BulkDock/OUTPUTS/openbind_a71ev2a_c2_elabs_1LOUU54.sdf', '/opt/xchem-fragalysis-2/maxwin/BulkDock/OUTPUTS/openbind_a71ev2a_c2_elabs_1LSYIDY.sdf']

>  <name>  (149) 
P570108

>  <ref_pdb>  (149) 
A2339a

>  <subsites>  (149) 
None

>  <HIPPO Pose ID>  (149) 
570108

>  <ref_mols>  (149) 
A2339a

>  <HIPPO Compound ID>  (149) 
411067

>  <tags>  (149) 
openbind_a71ev2a_c2_elabs,syndirella_product,openbind_a71ev2a_c2_elabs_scored,BulkDock Fragalysis export,openbind_a71ev2a_c2_elabs_scored_top80percent,openbind_a71ev2a_c2_elabs_scored_top80percent_despaghettified,syndirella_placed

>  <smina_score_min>  (149) 
-6.833

$$$$
P570110
     RDKit          3D

 21 23  0  0  0  0  0  0  0  0999 V2000
    9.5951    9.0986   23.0972 C   0  0  0  0  0  0  0  0  0  0  0  0
    9.1489   10.3686   23.6308 N   0  0  0  0  0  0  0  0  0  0  0  0
    9.7668   11.5047   23.2388 N   0  0  0  0  0  0  0  0  0  0  0  0
    9.1744   12.4735   23.9611 C   0  0  0  0  0  0  0  0  0  0  0  0
    9.6033   13.8820   23.9036 C   0  0  0  0  0  0  0  0  0  0  0  0
    9.1723   14.6552   24.6629 O   0  0  0  0  0  0  0  0  0  0  0  0
   10.5557   14.0792   22.7118 N   0  0  0  0  0  0  0  0  0  0  0  0
   11.0911   15.2512   22.1575 C   0  0  1  0  0  0  0  0  0  0  0  0
   12.1525   15.3849   21.1430 C   0  0  0  0  0  0  0  0  0  0  0  0
   10.7078   15.6903   20.7503 C   0  0  0  0  0  0  0  0  0  0  0  0
   10.0198   17.0254   20.7627 C   0  0  0  0  0  0  0  0  0  0  0  0
    9.6968   17.4530   19.4539 O   0  0  0  0  0  0  0  0  0  0  0  0
   10.1579   14.7539   19.7378 C   0  0  0  0  0  0  0  0  0  0  0  0
   11.0888   14.5747   18.6715 O   0  0  0  0  0  0  0  0  0  0  0  0
    8.1170   11.9571   24.7567 C   0  0  0  0  0  0  0  0  0  0  0  0
    7.1657   12.5024   25.6404 C   0  0  0  0  0  0  0  0  0  0  0  0
    6.2970   11.6401   26.3014 C   0  0  0  0  0  0  0  0  0  0  0  0
    5.4186   12.1458   27.1767 F   0  0  0  0  0  0  0  0  0  0  0  0
    6.3476   10.2677   26.1035 C   0  0  0  0  0  0  0  0  0  0  0  0
    7.2819    9.7175   25.2224 C   0  0  0  0  0  0  0  0  0  0  0  0
    8.1486   10.5835   24.5497 C   0  0  0  0  0  0  0  0  0  0  0  0
  1  2  1  0
  2  3  1  0
  3  4  2  0
  4  5  1  0
  5  6  2  0
  5  7  1  0
  8  7  1  6
  8  9  1  0
  9 10  1  0
 10 11  1  0
 11 12  1  0
 10 13  1  0
 13 14  1  0
  4 15  1  0
 15 16  2  0
 16 17  1  0
 17 18  1  0
 17 19  2  0
 19 20  1  0
 20 21  2  0
 21  2  1  0
 10  8  1  0
 21 15  1  0
M  END
>  <alias>  (150) 
None

>  <rmsd(smina/fragmenstein)>  (150) 
0.29

>  <smiles>  (150) 
Cn1nc(C(=O)N[C@H]2CC2(CO)CO)c2cc(F)ccc21

>  <gnina_score>  (150) 
5.748

>  <inspiration_score>  (150) 
None

>  <energy_score>  (150) 
-29.358916

>  <distance_score>  (150) 
0.475324

>  <gnina_score_min>  (150) 
5.748

>  <inchikey>  (150) 
UXWGKCIXZROKBI-NSHDSACASA-N

>  <exports>  (150) 
['/opt/xchem-fragalysis-2/maxwin/BulkDock/OUTPUTS/openbind_a71ev2a_c2_elabs_1LOUU54.sdf', '/opt/xchem-fragalysis-2/maxwin/BulkDock/OUTPUTS/openbind_a71ev2a_c2_elabs_1LSYIDY.sdf']

>  <name>  (150) 
P570110

>  <ref_pdb>  (150) 
A2339a

>  <subsites>  (150) 
None

>  <HIPPO Pose ID>  (150) 
570110

>  <ref_mols>  (150) 
A2339a

>  <HIPPO Compound ID>  (150) 
341110

>  <tags>  (150) 
openbind_a71ev2a_c2_elabs,syndirella_product,openbind_a71ev2a_c2_elabs_scored,BulkDock Fragalysis export,openbind_a71ev2a_c2_elabs_scored_top80percent,openbind_a71ev2a_c2_elabs_scored_top80percent_despaghettified,syndirella_placed

>  <smina_score_min>  (150) 
-7.423

$$$$
P570111
     RDKit          3D

 21 23  0  0  0  0  0  0  0  0999 V2000
    9.5510    8.7656   23.0655 C   0  0  0  0  0  0  0  0  0  0  0  0
    9.2580   10.0980   23.5374 N   0  0  0  0  0  0  0  0  0  0  0  0
    9.9717   11.1245   23.0385 N   0  0  0  0  0  0  0  0  0  0  0  0
    9.5662   12.1855   23.7493 C   0  0  0  0  0  0  0  0  0  0  0  0
   10.1569   13.5133   23.5699 C   0  0  0  0  0  0  0  0  0  0  0  0
   10.2036   14.2673   24.4620 O   0  0  0  0  0  0  0  0  0  0  0  0
   10.5466   13.6934   22.0829 N   0  0  0  0  0  0  0  0  0  0  0  0
   10.9755   14.8415   21.3791 C   0  0  0  0  0  0  0  0  0  0  0  0
   10.1185   16.0402   21.6589 C   0  0  0  0  0  0  0  0  0  0  0  0
    8.6881   15.9205   21.1724 C   0  0  0  0  0  0  0  0  0  0  0  0
    7.7353   15.1143   22.0376 C   0  0  0  0  0  0  0  0  0  0  0  0
    7.8405   15.4819   23.3385 F   0  0  0  0  0  0  0  0  0  0  0  0
   12.4414   15.1107   21.2557 C   0  0  0  0  0  0  0  0  0  0  0  0
   11.6483   14.7642   20.0355 C   0  0  0  0  0  0  0  0  0  0  0  0
    8.4542   11.8627   24.5773 C   0  0  0  0  0  0  0  0  0  0  0  0
    7.5707   12.5783   25.4107 C   0  0  0  0  0  0  0  0  0  0  0  0
    6.5976   11.8710   26.1160 C   0  0  0  0  0  0  0  0  0  0  0  0
    5.7804   12.5262   26.9516 F   0  0  0  0  0  0  0  0  0  0  0  0
    6.4817   10.4923   26.0085 C   0  0  0  0  0  0  0  0  0  0  0  0
    7.3389    9.7765   25.1710 C   0  0  0  0  0  0  0  0  0  0  0  0
    8.3033   10.4856   24.4473 C   0  0  0  0  0  0  0  0  0  0  0  0
  1  2  1  0
  2  3  1  0
  3  4  2  0
  4  5  1  0
  5  6  2  0
  5  7  1  0
  7  8  1  0
  8  9  1  0
  9 10  1  0
 10 11  1  0
 11 12  1  0
  8 13  1  0
 13 14  1  0
  4 15  1  0
 15 16  2  0
 16 17  1  0
 17 18  1  0
 17 19  2  0
 19 20  1  0
 20 21  2  0
 21  2  1  0
 14  8  1  0
 21 15  1  0
M  END
>  <alias>  (151) 
None

>  <rmsd(smina/fragmenstein)>  (151) 
0.542

>  <smiles>  (151) 
Cn1nc(C(=O)NC2(CCCF)CC2)c2cc(F)ccc21

>  <gnina_score>  (151) 
5.824

>  <inspiration_score>  (151) 
None

>  <energy_score>  (151) 
-1.112618

>  <distance_score>  (151) 
0.438431

>  <gnina_score_min>  (151) 
5.789

>  <inchikey>  (151) 
GJHWPASUKVTTAU-UHFFFAOYSA-N

>  <exports>  (151) 
['/opt/xchem-fragalysis-2/maxwin/BulkDock/OUTPUTS/openbind_a71ev2a_c2_elabs_1LOUU54.sdf', '/opt/xchem-fragalysis-2/maxwin/BulkDock/OUTPUTS/openbind_a71ev2a_c2_elabs_1LSYIDY.sdf']

>  <name>  (151) 
P570111

>  <ref_pdb>  (151) 
A2339a

>  <subsites>  (151) 
None

>  <HIPPO Pose ID>  (151) 
570111

>  <ref_mols>  (151) 
A2339a

>  <HIPPO Compound ID>  (151) 
411069

>  <tags>  (151) 
openbind_a71ev2a_c2_elabs,syndirella_product,openbind_a71ev2a_c2_elabs_scored,BulkDock Fragalysis export,openbind_a71ev2a_c2_elabs_scored_top80percent,openbind_a71ev2a_c2_elabs_scored_top80percent_despaghettified,syndirella_placed

>  <smina_score_min>  (151) 
-6.774

$$$$
P570120
     RDKit          3D

 21 23  0  0  0  0  0  0  0  0999 V2000
   12.4920   14.0294   23.1064 C   0  0  0  0  0  0  0  0  0  0  0  0
   12.6147   15.1089   22.0413 C   0  0  0  0  0  0  0  0  0  0  0  0
   11.8826   14.7392   20.7953 C   0  0  0  0  0  0  0  0  0  0  0  0
   12.4017   14.4081   19.7380 O   0  0  0  0  0  0  0  0  0  0  0  0
   10.4035   14.8162   20.9699 C   0  0  0  0  0  0  0  0  0  0  0  0
    9.8722   13.7788   21.7814 N   0  0  0  0  0  0  0  0  0  0  0  0
    9.1024   13.8454   23.1176 C   0  0  0  0  0  0  0  0  0  0  0  0
    8.7161   14.7656   23.7232 O   0  0  0  0  0  0  0  0  0  0  0  0
    8.8960   12.4644   23.5946 C   0  0  0  0  0  0  0  0  0  0  0  0
    9.5578   11.4335   23.0364 N   0  0  0  0  0  0  0  0  0  0  0  0
    9.0483   10.3374   23.6284 N   0  0  0  0  0  0  0  0  0  0  0  0
    9.5335    9.0367   23.2191 C   0  0  0  0  0  0  0  0  0  0  0  0
    8.0792   10.6264   24.5594 C   0  0  0  0  0  0  0  0  0  0  0  0
    7.2532    9.8148   25.3438 C   0  0  0  0  0  0  0  0  0  0  0  0
    6.3522   10.4360   26.2110 C   0  0  0  0  0  0  0  0  0  0  0  0
    6.2933   11.8206   26.2861 C   0  0  0  0  0  0  0  0  0  0  0  0
    5.4493   12.3897   27.1562 F   0  0  0  0  0  0  0  0  0  0  0  0
    7.0938   12.6312   25.4848 C   0  0  0  0  0  0  0  0  0  0  0  0
    7.9991   12.0174   24.5992 C   0  0  0  0  0  0  0  0  0  0  0  0
    9.6184   15.3204   19.7999 C   0  0  0  0  0  0  0  0  0  0  0  0
    9.7775   16.1925   20.9942 C   0  0  0  0  0  0  0  0  0  0  0  0
  1  2  1  0
  2  3  1  0
  3  4  2  0
  3  5  1  0
  5  6  1  0
  6  7  1  0
  7  8  2  0
  7  9  1  0
  9 10  2  0
 10 11  1  0
 11 12  1  0
 11 13  1  0
 13 14  2  0
 14 15  1  0
 15 16  2  0
 16 17  1  0
 16 18  1  0
 18 19  2  0
  5 20  1  0
 20 21  1  0
 21  5  1  0
 19  9  1  0
 19 13  1  0
M  END
>  <alias>  (152) 
None

>  <rmsd(smina/fragmenstein)>  (152) 
0.398

>  <smiles>  (152) 
CCC(=O)C1(NC(=O)c2nn(C)c3ccc(F)cc23)CC1

>  <gnina_score>  (152) 
5.9

>  <inspiration_score>  (152) 
None

>  <energy_score>  (152) 
-49.810849

>  <distance_score>  (152) 
0.88597

>  <gnina_score_min>  (152) 
5.81

>  <inchikey>  (152) 
WNYUXVUBFIQPIN-UHFFFAOYSA-N

>  <exports>  (152) 
['/opt/xchem-fragalysis-2/maxwin/BulkDock/OUTPUTS/openbind_a71ev2a_c2_elabs_1LOUU54.sdf', '/opt/xchem-fragalysis-2/maxwin/BulkDock/OUTPUTS/openbind_a71ev2a_c2_elabs_1LSYIDY.sdf']

>  <name>  (152) 
P570120

>  <ref_pdb>  (152) 
A2339a

>  <subsites>  (152) 
None

>  <HIPPO Pose ID>  (152) 
570120

>  <ref_mols>  (152) 
A2339a

>  <HIPPO Compound ID>  (152) 
411078

>  <tags>  (152) 
openbind_a71ev2a_c2_elabs,syndirella_product,openbind_a71ev2a_c2_elabs_scored,BulkDock Fragalysis export,openbind_a71ev2a_c2_elabs_scored_top80percent,openbind_a71ev2a_c2_elabs_scored_top80percent_despaghettified,syndirella_placed

>  <smina_score_min>  (152) 
-7.034

$$$$
P570126
     RDKit          3D

 21 24  0  0  0  0  0  0  0  0999 V2000
    9.4846    8.7599   23.3131 C   0  0  0  0  0  0  0  0  0  0  0  0
    9.0376   10.0705   23.7203 N   0  0  0  0  0  0  0  0  0  0  0  0
    9.6835   11.1413   23.2225 N   0  0  0  0  0  0  0  0  0  0  0  0
    9.1486   12.1773   23.8883 C   0  0  0  0  0  0  0  0  0  0  0  0
    9.6670   13.5324   23.7639 C   0  0  0  0  0  0  0  0  0  0  0  0
    9.3202   14.3591   24.5120 O   0  0  0  0  0  0  0  0  0  0  0  0
   10.6492   13.6065   22.5766 N   0  0  0  0  0  0  0  0  0  0  0  0
   11.3237   14.7097   22.0133 C   0  0  1  0  0  0  0  0  0  0  0  0
   11.1795   15.9027   22.8428 C   0  0  0  0  0  0  0  0  0  0  0  0
   12.4753   14.6205   21.0552 C   0  0  0  0  0  0  0  0  0  0  0  0
   11.1465   15.0176   20.5696 C   0  0  0  0  0  0  0  0  0  0  0  0
   10.3379   14.2229   19.6804 C   0  0  0  0  0  0  0  0  0  0  0  0
    9.4529   15.4263   19.5594 C   0  0  0  0  0  0  0  0  0  0  0  0
   10.6539   16.2467   19.9257 C   0  0  0  0  0  0  0  0  0  0  0  0
    8.0782   11.7810   24.7252 C   0  0  0  0  0  0  0  0  0  0  0  0
    7.1730   12.4393   25.5814 C   0  0  0  0  0  0  0  0  0  0  0  0
    6.2693   11.6762   26.3112 C   0  0  0  0  0  0  0  0  0  0  0  0
    5.4350   12.2846   27.1635 F   0  0  0  0  0  0  0  0  0  0  0  0
    6.2424   10.2955   26.2039 C   0  0  0  0  0  0  0  0  0  0  0  0
    7.1341    9.6400   25.3518 C   0  0  0  0  0  0  0  0  0  0  0  0
    8.0442   10.3981   24.6139 C   0  0  0  0  0  0  0  0  0  0  0  0
  1  2  1  0
  2  3  1  0
  3  4  2  0
  4  5  1  0
  5  6  2  0
  5  7  1  0
  8  7  1  0
  8  9  1  1
  8 10  1  0
 10 11  1  0
 11 12  1  0
 12 13  1  0
 13 14  1  0
  4 15  1  0
 15 16  2  0
 16 17  1  0
 17 18  1  0
 17 19  2  0
 19 20  1  0
 20 21  2  0
 21  2  1  0
 11  8  1  0
 21 15  1  0
 14 11  1  0
M  END
>  <alias>  (153) 
None

>  <rmsd(smina/fragmenstein)>  (153) 
0.936

>  <smiles>  (153) 
Cn1nc(C(=O)N[C@@]2(C)CC23CCC3)c2cc(F)ccc21

>  <gnina_score>  (153) 
5.705

>  <inspiration_score>  (153) 
None

>  <energy_score>  (153) 
-14.862111

>  <distance_score>  (153) 
0.360397

>  <gnina_score_min>  (153) 
5.891

>  <inchikey>  (153) 
MGMGMJQFYXGNPQ-HNNXBMFYSA-N

>  <exports>  (153) 
['/opt/xchem-fragalysis-2/maxwin/BulkDock/OUTPUTS/openbind_a71ev2a_c2_elabs_1LOUU54.sdf', '/opt/xchem-fragalysis-2/maxwin/BulkDock/OUTPUTS/openbind_a71ev2a_c2_elabs_1LSYIDY.sdf']

>  <name>  (153) 
P570126

>  <ref_pdb>  (153) 
A2339a

>  <subsites>  (153) 
None

>  <HIPPO Pose ID>  (153) 
570126

>  <ref_mols>  (153) 
A2339a

>  <HIPPO Compound ID>  (153) 
411081

>  <tags>  (153) 
openbind_a71ev2a_c2_elabs,syndirella_product,openbind_a71ev2a_c2_elabs_scored,BulkDock Fragalysis export,openbind_a71ev2a_c2_elabs_scored_top80percent,openbind_a71ev2a_c2_elabs_scored_top80percent_despaghettified,syndirella_placed

>  <smina_score_min>  (153) 
-7.113

$$$$
P570127
     RDKit          3D

 21 23  0  0  0  0  0  0  0  0999 V2000
    9.5623    8.6846   23.3110 C   0  0  0  0  0  0  0  0  0  0  0  0
    9.1074   10.0181   23.6229 N   0  0  0  0  0  0  0  0  0  0  0  0
    9.6641   11.0486   22.9613 N   0  0  0  0  0  0  0  0  0  0  0  0
    8.9718   12.1180   23.3821 C   0  0  0  0  0  0  0  0  0  0  0  0
    9.1224   13.4266   22.7453 C   0  0  0  0  0  0  0  0  0  0  0  0
    8.4244   14.3054   23.0628 O   0  0  0  0  0  0  0  0  0  0  0  0
   10.3252   13.4035   21.7778 N   0  0  0  0  0  0  0  0  0  0  0  0
   10.9654   14.4534   21.0874 C   0  0  0  0  0  0  0  0  0  0  0  0
   10.8521   16.0479   21.9556 S   0  0  0  0  0  0  0  0  0  0  0  0
    9.3756   16.7598   21.2138 C   0  0  0  0  0  0  0  0  0  0  0  0
   12.0116   16.8042   21.5578 O   0  0  0  0  0  0  0  0  0  0  0  0
   10.6942   15.7157   23.3624 O   0  0  0  0  0  0  0  0  0  0  0  0
   12.3085   14.2589   20.4426 C   0  0  0  0  0  0  0  0  0  0  0  0
   11.1370   14.6505   19.6034 C   0  0  0  0  0  0  0  0  0  0  0  0
    8.0811   11.7900   24.4379 C   0  0  0  0  0  0  0  0  0  0  0  0
    7.1953   12.5001   25.2739 C   0  0  0  0  0  0  0  0  0  0  0  0
    6.3773   11.7829   26.1431 C   0  0  0  0  0  0  0  0  0  0  0  0
    5.5573   12.4406   26.9735 F   0  0  0  0  0  0  0  0  0  0  0  0
    6.3902   10.3973   26.1679 C   0  0  0  0  0  0  0  0  0  0  0  0
    7.2700    9.6877   25.3480 C   0  0  0  0  0  0  0  0  0  0  0  0
    8.1327   10.4029   24.5138 C   0  0  0  0  0  0  0  0  0  0  0  0
  1  2  1  0
  2  3  1  0
  3  4  2  0
  4  5  1  0
  5  6  2  0
  5  7  1  0
  7  8  1  0
  8  9  1  0
  9 10  1  0
  9 11  2  0
  9 12  2  0
  8 13  1  0
 13 14  1  0
  4 15  1  0
 15 16  2  0
 16 17  1  0
 17 18  1  0
 17 19  2  0
 19 20  1  0
 20 21  2  0
 21  2  1  0
 14  8  1  0
 21 15  1  0
M  END
>  <alias>  (154) 
None

>  <rmsd(smina/fragmenstein)>  (154) 
1.54

>  <smiles>  (154) 
Cn1nc(C(=O)NC2(S(C)(=O)=O)CC2)c2cc(F)ccc21

>  <gnina_score>  (154) 
5.581

>  <inspiration_score>  (154) 
None

>  <energy_score>  (154) 
-15.702263

>  <distance_score>  (154) 
0.612346

>  <gnina_score_min>  (154) 
5.585

>  <inchikey>  (154) 
IFMMVHWJAWSJOF-UHFFFAOYSA-N

>  <exports>  (154) 
['/opt/xchem-fragalysis-2/maxwin/BulkDock/OUTPUTS/openbind_a71ev2a_c2_elabs_1LOUU54.sdf', '/opt/xchem-fragalysis-2/maxwin/BulkDock/OUTPUTS/openbind_a71ev2a_c2_elabs_1LSYIDY.sdf']

>  <name>  (154) 
P570127

>  <ref_pdb>  (154) 
A2339a

>  <subsites>  (154) 
None

>  <HIPPO Pose ID>  (154) 
570127

>  <ref_mols>  (154) 
A2339a

>  <HIPPO Compound ID>  (154) 
411083

>  <tags>  (154) 
openbind_a71ev2a_c2_elabs,syndirella_product,openbind_a71ev2a_c2_elabs_scored,BulkDock Fragalysis export,openbind_a71ev2a_c2_elabs_scored_top80percent,openbind_a71ev2a_c2_elabs_scored_top80percent_despaghettified,syndirella_placed

>  <smina_score_min>  (154) 
-6.53

$$$$
P570128
     RDKit          3D

 21 24  0  0  0  0  0  0  0  0999 V2000
    9.4907    8.7779   23.3169 C   0  0  0  0  0  0  0  0  0  0  0  0
    9.0760   10.1189   23.6550 N   0  0  0  0  0  0  0  0  0  0  0  0
    9.7073   11.1480   23.0599 N   0  0  0  0  0  0  0  0  0  0  0  0
    9.1869   12.2398   23.6488 C   0  0  0  0  0  0  0  0  0  0  0  0
    9.6735   13.5841   23.3205 C   0  0  0  0  0  0  0  0  0  0  0  0
    9.4251   14.4917   24.0119 O   0  0  0  0  0  0  0  0  0  0  0  0
   10.5114   13.5125   22.0237 N   0  0  0  0  0  0  0  0  0  0  0  0
   11.2841   14.5074   21.3696 C   0  0  1  0  0  0  0  0  0  0  0  0
   12.3406   15.0943   22.2400 C   0  0  0  0  0  0  0  0  0  0  0  0
   12.7304   14.1388   23.2388 O   0  0  0  0  0  0  0  0  0  0  0  0
   11.4927   14.6060   19.8463 C   0  0  0  0  0  0  0  0  0  0  0  0
   10.5234   15.4322   20.5359 C   0  0  0  0  0  0  0  0  0  0  0  0
    9.0612   15.4689   20.4281 C   0  0  0  0  0  0  0  0  0  0  0  0
    9.8941   16.7325   20.4362 C   0  0  0  0  0  0  0  0  0  0  0  0
    8.1698   11.9003   24.5806 C   0  0  0  0  0  0  0  0  0  0  0  0
    7.3000   12.6115   25.4310 C   0  0  0  0  0  0  0  0  0  0  0  0
    6.4006   11.8949   26.2180 C   0  0  0  0  0  0  0  0  0  0  0  0
    5.5946   12.5525   27.0618 F   0  0  0  0  0  0  0  0  0  0  0  0
    6.3368   10.5108   26.1688 C   0  0  0  0  0  0  0  0  0  0  0  0
    7.1958    9.7959   25.3328 C   0  0  0  0  0  0  0  0  0  0  0  0
    8.1101   10.5099   24.5508 C   0  0  0  0  0  0  0  0  0  0  0  0
  1  2  1  0
  2  3  1  0
  3  4  2  0
  4  5  1  0
  5  6  2  0
  5  7  1  0
  8  7  1  0
  8  9  1  1
  9 10  1  0
  8 11  1  0
 11 12  1  0
 12 13  1  0
 13 14  1  0
  4 15  1  0
 15 16  2  0
 16 17  1  0
 17 18  1  0
 17 19  2  0
 19 20  1  0
 20 21  2  0
 21  2  1  0
 12  8  1  0
 21 15  1  0
 14 12  1  0
M  END
>  <alias>  (155) 
None

>  <rmsd(smina/fragmenstein)>  (155) 
0.809

>  <smiles>  (155) 
Cn1nc(C(=O)N[C@@]2(CO)CC23CC3)c2cc(F)ccc21

>  <gnina_score>  (155) 
5.735

>  <inspiration_score>  (155) 
None

>  <energy_score>  (155) 
-18.792862

>  <distance_score>  (155) 
0.337702

>  <gnina_score_min>  (155) 
5.78

>  <inchikey>  (155) 
NXALQPGSCQYAKR-OAHLLOKOSA-N

>  <exports>  (155) 
['/opt/xchem-fragalysis-2/maxwin/BulkDock/OUTPUTS/openbind_a71ev2a_c2_elabs_1LOUU54.sdf', '/opt/xchem-fragalysis-2/maxwin/BulkDock/OUTPUTS/openbind_a71ev2a_c2_elabs_1LSYIDY.sdf']

>  <name>  (155) 
P570128

>  <ref_pdb>  (155) 
A2339a

>  <subsites>  (155) 
None

>  <HIPPO Pose ID>  (155) 
570128

>  <ref_mols>  (155) 
A2339a

>  <HIPPO Compound ID>  (155) 
411084

>  <tags>  (155) 
openbind_a71ev2a_c2_elabs,syndirella_product,openbind_a71ev2a_c2_elabs_scored,BulkDock Fragalysis export,openbind_a71ev2a_c2_elabs_scored_top80percent,openbind_a71ev2a_c2_elabs_scored_top80percent_despaghettified,syndirella_placed

>  <smina_score_min>  (155) 
-7.433

$$$$
P570129
     RDKit          3D

 21 25  0  0  0  0  0  0  0  0999 V2000
    9.4541    9.1396   23.2607 C   0  0  0  0  0  0  0  0  0  0  0  0
    8.9354   10.3774   23.8037 N   0  0  0  0  0  0  0  0  0  0  0  0
    9.4813   11.5455   23.4040 N   0  0  0  0  0  0  0  0  0  0  0  0
    8.8646   12.4711   24.1674 C   0  0  0  0  0  0  0  0  0  0  0  0
    9.2268   13.8896   24.1370 C   0  0  0  0  0  0  0  0  0  0  0  0
    8.8763   14.6297   24.9628 O   0  0  0  0  0  0  0  0  0  0  0  0
   10.0466   14.1324   22.8740 N   0  0  0  0  0  0  0  0  0  0  0  0
   10.6764   15.2852   22.4111 C   0  0  1  0  0  0  0  0  0  0  0  0
   11.5990   15.2782   21.2466 C   0  0  2  0  0  0  0  0  0  0  0  0
   12.3788   14.2673   20.5653 C   0  0  0  0  0  0  0  0  0  0  0  0
   13.0270   15.4061   21.3567 C   0  0  0  0  0  0  0  0  0  0  0  0
   10.3342   15.8754   21.1073 C   0  0  1  0  0  0  0  0  0  0  0  0
    9.2394   15.5517   20.2016 C   0  0  0  0  0  0  0  0  0  0  0  0
    9.5610   16.9908   20.6056 C   0  0  0  0  0  0  0  0  0  0  0  0
    7.8512   11.9059   24.9658 C   0  0  0  0  0  0  0  0  0  0  0  0
    6.9022   12.4127   25.8695 C   0  0  0  0  0  0  0  0  0  0  0  0
    6.0648   11.5174   26.5171 C   0  0  0  0  0  0  0  0  0  0  0  0
    5.1807   11.9866   27.4048 F   0  0  0  0  0  0  0  0  0  0  0  0
    6.1500   10.1523   26.2883 C   0  0  0  0  0  0  0  0  0  0  0  0
    7.0918    9.6450   25.3884 C   0  0  0  0  0  0  0  0  0  0  0  0
    7.9299   10.5411   24.7270 C   0  0  0  0  0  0  0  0  0  0  0  0
  1  2  1  0
  2  3  1  0
  3  4  2  0
  4  5  1  0
  5  6  2  0
  5  7  1  0
  8  7  1  6
  8  9  1  0
  9 10  1  6
 10 11  1  0
  9 12  1  0
 12 13  1  6
 13 14  1  0
  4 15  1  0
 15 16  2  0
 16 17  1  0
 17 18  1  0
 17 19  2  0
 19 20  1  0
 20 21  2  0
 21  2  1  0
 12  8  1  0
 21 15  1  0
 11  9  1  0
 14 12  1  0
M  END
>  <alias>  (156) 
None

>  <rmsd(smina/fragmenstein)>  (156) 
0.331

>  <smiles>  (156) 
Cn1nc(C(=O)N[C@H]2[C@]3(CC3)[C@@]23CC3)c2cc(F)ccc21

>  <gnina_score>  (156) 
5.662

>  <inspiration_score>  (156) 
None

>  <energy_score>  (156) 
-9.612952

>  <distance_score>  (156) 
0.740541

>  <gnina_score_min>  (156) 
5.697

>  <inchikey>  (156) 
QOPJQVGBTACIKT-UHFFFAOYSA-N

>  <exports>  (156) 
['/opt/xchem-fragalysis-2/maxwin/BulkDock/OUTPUTS/openbind_a71ev2a_c2_elabs_1LOUU54.sdf', '/opt/xchem-fragalysis-2/maxwin/BulkDock/OUTPUTS/openbind_a71ev2a_c2_elabs_1LSYIDY.sdf']

>  <name>  (156) 
P570129

>  <ref_pdb>  (156) 
A2339a

>  <subsites>  (156) 
None

>  <HIPPO Pose ID>  (156) 
570129

>  <ref_mols>  (156) 
A2339a

>  <HIPPO Compound ID>  (156) 
411086

>  <tags>  (156) 
openbind_a71ev2a_c2_elabs,syndirella_product,openbind_a71ev2a_c2_elabs_scored,BulkDock Fragalysis export,openbind_a71ev2a_c2_elabs_scored_top80percent,openbind_a71ev2a_c2_elabs_scored_top80percent_despaghettified,syndirella_placed

>  <smina_score_min>  (156) 
-6.603

$$$$
P570130
     RDKit          3D

 21 24  0  0  0  0  0  0  0  0999 V2000
    9.5172    9.0288   23.1314 C   0  0  0  0  0  0  0  0  0  0  0  0
    9.1411   10.3151   23.6763 N   0  0  0  0  0  0  0  0  0  0  0  0
    9.8469   11.4075   23.3141 N   0  0  0  0  0  0  0  0  0  0  0  0
    9.3034   12.4072   24.0369 C   0  0  0  0  0  0  0  0  0  0  0  0
    9.8338   13.7804   23.9825 C   0  0  0  0  0  0  0  0  0  0  0  0
    9.5020   14.5891   24.7550 O   0  0  0  0  0  0  0  0  0  0  0  0
   10.7345   13.8977   22.7398 N   0  0  0  0  0  0  0  0  0  0  0  0
   11.3260   15.0241   22.1446 C   0  0  1  0  0  0  0  0  0  0  0  0
   12.0261   15.0154   20.7937 C   0  0  0  0  0  0  0  0  0  0  0  0
   10.6861   15.5651   20.9417 C   0  0  2  0  0  0  0  0  0  0  0  0
    9.8598   16.7250   20.6324 C   0  0  0  0  0  0  0  0  0  0  0  0
    9.3917   15.3081   20.3113 C   0  0  2  0  0  0  0  0  0  0  0  0
    8.3383   14.7112   21.0789 C   0  0  0  0  0  0  0  0  0  0  0  0
    7.4943   14.1551   21.6518 N   0  0  0  0  0  0  0  0  0  0  0  0
    8.1934   11.9574   24.7986 C   0  0  0  0  0  0  0  0  0  0  0  0
    7.2515   12.5579   25.6562 C   0  0  0  0  0  0  0  0  0  0  0  0
    6.3260   11.7452   26.3046 C   0  0  0  0  0  0  0  0  0  0  0  0
    5.4605   12.2974   27.1651 F   0  0  0  0  0  0  0  0  0  0  0  0
    6.3099   10.3709   26.1156 C   0  0  0  0  0  0  0  0  0  0  0  0
    7.2246    9.7687   25.2491 C   0  0  0  0  0  0  0  0  0  0  0  0
    8.1482   10.5837   24.5880 C   0  0  0  0  0  0  0  0  0  0  0  0
  1  2  1  0
  2  3  1  0
  3  4  2  0
  4  5  1  0
  5  6  2  0
  5  7  1  0
  8  7  1  6
  8  9  1  0
 10  9  1  6
 10 11  1  0
 11 12  1  0
 12 13  1  1
 13 14  3  0
  4 15  1  0
 15 16  2  0
 16 17  1  0
 17 18  1  0
 17 19  2  0
 19 20  1  0
 20 21  2  0
 21  2  1  0
 10  8  1  0
 21 15  1  0
 12 10  1  0
M  END
>  <alias>  (157) 
None

>  <rmsd(smina/fragmenstein)>  (157) 
0.251

>  <smiles>  (157) 
Cn1nc(C(=O)N[C@H]2C[C@]23C[C@@H]3C#N)c2cc(F)ccc21

>  <gnina_score>  (157) 
5.904

>  <inspiration_score>  (157) 
None

>  <energy_score>  (157) 
-28.075657

>  <distance_score>  (157) 
0.424534

>  <gnina_score_min>  (157) 
5.86

>  <inchikey>  (157) 
QWVVVIOYBGBHSD-XHYYPMHDSA-N

>  <exports>  (157) 
['/opt/xchem-fragalysis-2/maxwin/BulkDock/OUTPUTS/openbind_a71ev2a_c2_elabs_1LOUU54.sdf', '/opt/xchem-fragalysis-2/maxwin/BulkDock/OUTPUTS/openbind_a71ev2a_c2_elabs_1LSYIDY.sdf']

>  <name>  (157) 
P570130

>  <ref_pdb>  (157) 
A2339a

>  <subsites>  (157) 
None

>  <HIPPO Pose ID>  (157) 
570130

>  <ref_mols>  (157) 
A2339a

>  <HIPPO Compound ID>  (157) 
411087

>  <tags>  (157) 
openbind_a71ev2a_c2_elabs,syndirella_product,openbind_a71ev2a_c2_elabs_scored,BulkDock Fragalysis export,openbind_a71ev2a_c2_elabs_scored_top80percent,openbind_a71ev2a_c2_elabs_scored_top80percent_despaghettified,syndirella_placed

>  <smina_score_min>  (157) 
-7.601

$$$$
P570135
     RDKit          3D

 21 23  0  0  0  0  0  0  0  0999 V2000
   12.4939   13.6290   24.2229 C   0  0  0  0  0  0  0  0  0  0  0  0
   11.2754   14.5342   24.3924 C   0  0  0  0  0  0  0  0  0  0  0  0
   11.1811   15.3178   25.7024 C   0  0  0  0  0  0  0  0  0  0  0  0
   11.0053   15.4002   23.0989 C   0  0  0  0  0  0  0  0  0  0  0  0
   10.7923   14.5689   21.8423 C   0  0  0  0  0  0  0  0  0  0  0  0
   10.0688   13.4731   22.2893 N   0  0  0  0  0  0  0  0  0  0  0  0
    8.7366   13.4002   23.0396 C   0  0  0  0  0  0  0  0  0  0  0  0
    7.9910   14.2421   23.3366 O   0  0  0  0  0  0  0  0  0  0  0  0
    8.5300   12.0346   23.4708 C   0  0  0  0  0  0  0  0  0  0  0  0
    9.2835   11.0124   23.0340 N   0  0  0  0  0  0  0  0  0  0  0  0
    8.8125    9.9571   23.7229 N   0  0  0  0  0  0  0  0  0  0  0  0
    9.3663    8.6575   23.4319 C   0  0  0  0  0  0  0  0  0  0  0  0
    7.8450   10.2970   24.6401 C   0  0  0  0  0  0  0  0  0  0  0  0
    7.0494    9.5639   25.5141 C   0  0  0  0  0  0  0  0  0  0  0  0
    6.1854   10.2382   26.3810 C   0  0  0  0  0  0  0  0  0  0  0  0
    6.1279   11.6205   26.3681 C   0  0  0  0  0  0  0  0  0  0  0  0
    5.3416   12.2560   27.2448 F   0  0  0  0  0  0  0  0  0  0  0  0
    6.8702   12.3596   25.4587 C   0  0  0  0  0  0  0  0  0  0  0  0
    7.7105   11.6725   24.5606 C   0  0  0  0  0  0  0  0  0  0  0  0
   10.5107   15.2496   20.5367 C   0  0  0  0  0  0  0  0  0  0  0  0
   11.8477   14.6056   20.7814 C   0  0  0  0  0  0  0  0  0  0  0  0
  1  2  1  0
  2  3  1  0
  2  4  1  0
  4  5  1  0
  5  6  1  0
  6  7  1  0
  7  8  2  0
  7  9  1  0
  9 10  2  0
 10 11  1  0
 11 12  1  0
 11 13  1  0
 13 14  2  0
 14 15  1  0
 15 16  2  0
 16 17  1  0
 16 18  1  0
 18 19  2  0
  5 20  1  0
 20 21  1  0
 21  5  1  0
 19  9  1  0
 19 13  1  0
M  END
>  <alias>  (158) 
None

>  <rmsd(smina/fragmenstein)>  (158) 
0.807

>  <smiles>  (158) 
CC(C)CC1(NC(=O)c2nn(C)c3ccc(F)cc23)CC1

>  <gnina_score>  (158) 
5.94

>  <inspiration_score>  (158) 
None

>  <energy_score>  (158) 
-27.026984

>  <distance_score>  (158) 
0.669026

>  <gnina_score_min>  (158) 
5.665

>  <inchikey>  (158) 
WMRGAIBTPFSQNK-UHFFFAOYSA-N

>  <exports>  (158) 
['/opt/xchem-fragalysis-2/maxwin/BulkDock/OUTPUTS/openbind_a71ev2a_c2_elabs_1LOUU54.sdf', '/opt/xchem-fragalysis-2/maxwin/BulkDock/OUTPUTS/openbind_a71ev2a_c2_elabs_1LSYIDY.sdf']

>  <name>  (158) 
P570135

>  <ref_pdb>  (158) 
A2339a

>  <subsites>  (158) 
None

>  <HIPPO Pose ID>  (158) 
570135

>  <ref_mols>  (158) 
A2339a

>  <HIPPO Compound ID>  (158) 
411088

>  <tags>  (158) 
openbind_a71ev2a_c2_elabs,syndirella_product,openbind_a71ev2a_c2_elabs_scored,BulkDock Fragalysis export,openbind_a71ev2a_c2_elabs_scored_top80percent,openbind_a71ev2a_c2_elabs_scored_top80percent_despaghettified,syndirella_placed

>  <smina_score_min>  (158) 
-6.589

$$$$
P570136
     RDKit          3D

 21 25  0  0  0  0  0  0  0  0999 V2000
    8.9816    8.6617   23.6055 C   0  0  0  0  0  0  0  0  0  0  0  0
    8.5990    9.9829   24.0385 N   0  0  0  0  0  0  0  0  0  0  0  0
    9.2738   11.0244   23.5350 N   0  0  0  0  0  0  0  0  0  0  0  0
    8.7985   12.0760   24.2236 C   0  0  0  0  0  0  0  0  0  0  0  0
    9.3350   13.3986   24.0041 C   0  0  0  0  0  0  0  0  0  0  0  0
    9.1669   14.2897   24.7339 O   0  0  0  0  0  0  0  0  0  0  0  0
   10.0888   13.3330   22.6773 N   0  0  0  0  0  0  0  0  0  0  0  0
   10.6913   14.3217   21.9459 C   0  0  1  0  0  0  0  0  0  0  0  0
   10.7094   15.6917   22.5142 C   0  0  0  0  0  0  0  0  0  0  0  0
   11.5393   16.3094   21.3863 C   0  0  1  0  0  0  0  0  0  0  0  0
   12.7404   15.3391   21.3045 C   0  0  0  0  0  0  0  0  0  0  0  0
   11.9185   14.1120   21.1590 C   0  0  2  0  0  0  0  0  0  0  0  0
   10.6415   14.4725   20.4783 C   0  0  2  0  0  0  0  0  0  0  0  0
   10.6835   15.9241   20.1432 C   0  0  0  0  0  0  0  0  0  0  0  0
    7.7565   11.7319   25.0903 C   0  0  0  0  0  0  0  0  0  0  0  0
    6.9132   12.4421   25.9600 C   0  0  0  0  0  0  0  0  0  0  0  0
    5.9795   11.7281   26.6930 C   0  0  0  0  0  0  0  0  0  0  0  0
    5.1954   12.3810   27.5572 F   0  0  0  0  0  0  0  0  0  0  0  0
    5.8590   10.3555   26.5646 C   0  0  0  0  0  0  0  0  0  0  0  0
    6.6789    9.6555   25.6777 C   0  0  0  0  0  0  0  0  0  0  0  0
    7.6394   10.3553   24.9524 C   0  0  0  0  0  0  0  0  0  0  0  0
  1  2  1  0
  2  3  1  0
  3  4  2  0
  4  5  1  0
  5  6  2  0
  5  7  1  0
  8  7  1  1
  8  9  1  0
 10  9  1  1
 10 11  1  0
 12 11  1  1
 12 13  1  0
 13 14  1  1
  4 15  1  0
 15 16  2  0
 16 17  1  0
 17 18  1  0
 17 19  2  0
 19 20  1  0
 20 21  2  0
 21  2  1  0
 12  8  1  0
 21 15  1  0
 13  8  1  0
 14 10  1  0
M  END
>  <alias>  (159) 
None

>  <rmsd(smina/fragmenstein)>  (159) 
1.108

>  <smiles>  (159) 
Cn1nc(C(=O)N[C@@]23C[C@H]4C[C@@H]2[C@@H]3C4)c2cc(F)ccc21

>  <gnina_score>  (159) 
5.637

>  <inspiration_score>  (159) 
None

>  <energy_score>  (159) 
-26.535697

>  <distance_score>  (159) 
0.749881

>  <gnina_score_min>  (159) 
5.782

>  <inchikey>  (159) 
YPWJCUWWGGOZSM-UFGRDHGYSA-N

>  <exports>  (159) 
['/opt/xchem-fragalysis-2/maxwin/BulkDock/OUTPUTS/openbind_a71ev2a_c2_elabs_1LOUU54.sdf', '/opt/xchem-fragalysis-2/maxwin/BulkDock/OUTPUTS/openbind_a71ev2a_c2_elabs_1LSYIDY.sdf']

>  <name>  (159) 
P570136

>  <ref_pdb>  (159) 
A2339a

>  <subsites>  (159) 
None

>  <HIPPO Pose ID>  (159) 
570136

>  <ref_mols>  (159) 
A2339a

>  <HIPPO Compound ID>  (159) 
411091

>  <tags>  (159) 
openbind_a71ev2a_c2_elabs,syndirella_product,openbind_a71ev2a_c2_elabs_scored,BulkDock Fragalysis export,openbind_a71ev2a_c2_elabs_scored_top80percent,openbind_a71ev2a_c2_elabs_scored_top80percent_despaghettified,syndirella_placed

>  <smina_score_min>  (159) 
-7.25

$$$$
P570149
     RDKit          3D

 21 24  0  0  0  0  0  0  0  0999 V2000
    9.3311    8.7599   23.1617 C   0  0  0  0  0  0  0  0  0  0  0  0
    9.0597   10.0759   23.6854 N   0  0  0  0  0  0  0  0  0  0  0  0
    9.8346   11.0890   23.2670 N   0  0  0  0  0  0  0  0  0  0  0  0
    9.3937   12.1503   23.9637 C   0  0  0  0  0  0  0  0  0  0  0  0
   10.1026   13.4290   23.9121 C   0  0  0  0  0  0  0  0  0  0  0  0
    9.8082   14.3090   24.6191 O   0  0  0  0  0  0  0  0  0  0  0  0
   11.1607   13.3564   22.7963 N   0  0  0  0  0  0  0  0  0  0  0  0
   11.9879   14.3462   22.2669 C   0  0  1  0  0  0  0  0  0  0  0  0
   12.6523   14.5832   20.9582 C   0  0  0  0  0  0  0  0  0  0  0  0
   11.2733   15.0684   21.1377 C   0  0  0  0  0  0  0  0  0  0  0  0
   10.2824   14.4191   20.2572 C   0  0  0  0  0  0  0  0  0  0  0  0
    9.1830   15.4194   20.0926 C   0  0  0  0  0  0  0  0  0  0  0  0
    9.7980   16.7660   20.3999 C   0  0  0  0  0  0  0  0  0  0  0  0
   10.8167   16.4260   21.4674 C   0  0  0  0  0  0  0  0  0  0  0  0
    8.2455   11.8345   24.7335 C   0  0  0  0  0  0  0  0  0  0  0  0
    7.3641   12.5441   25.5733 C   0  0  0  0  0  0  0  0  0  0  0  0
    6.3877   11.8348   26.2681 C   0  0  0  0  0  0  0  0  0  0  0  0
    5.5768   12.4870   27.1113 F   0  0  0  0  0  0  0  0  0  0  0  0
    6.2695   10.4592   26.1467 C   0  0  0  0  0  0  0  0  0  0  0  0
    7.1255    9.7513   25.3011 C   0  0  0  0  0  0  0  0  0  0  0  0
    8.0974   10.4587   24.5888 C   0  0  0  0  0  0  0  0  0  0  0  0
  1  2  1  0
  2  3  1  0
  3  4  2  0
  4  5  1  0
  5  6  2  0
  5  7  1  0
  8  7  1  6
  8  9  1  0
  9 10  1  0
 10 11  1  0
 11 12  1  0
 12 13  1  0
 13 14  1  0
  4 15  1  0
 15 16  2  0
 16 17  1  0
 17 18  1  0
 17 19  2  0
 19 20  1  0
 20 21  2  0
 21  2  1  0
 10  8  1  0
 21 15  1  0
 14 10  1  0
M  END
>  <alias>  (160) 
None

>  <rmsd(smina/fragmenstein)>  (160) 
0.762

>  <smiles>  (160) 
Cn1nc(C(=O)N[C@H]2CC23CCCC3)c2cc(F)ccc21

>  <gnina_score>  (160) 
5.782

>  <inspiration_score>  (160) 
None

>  <energy_score>  (160) 
-22.146892

>  <distance_score>  (160) 
0.53909

>  <gnina_score_min>  (160) 
5.71

>  <inchikey>  (160) 
GZMOZTGWJWCYFB-ZDUSSCGKSA-N

>  <exports>  (160) 
['/opt/xchem-fragalysis-2/maxwin/BulkDock/OUTPUTS/openbind_a71ev2a_c2_elabs_1LOUU54.sdf', '/opt/xchem-fragalysis-2/maxwin/BulkDock/OUTPUTS/openbind_a71ev2a_c2_elabs_1LSYIDY.sdf']

>  <name>  (160) 
P570149

>  <ref_pdb>  (160) 
A2339a

>  <subsites>  (160) 
None

>  <HIPPO Pose ID>  (160) 
570149

>  <ref_mols>  (160) 
A2339a

>  <HIPPO Compound ID>  (160) 
411096

>  <tags>  (160) 
openbind_a71ev2a_c2_elabs,syndirella_product,openbind_a71ev2a_c2_elabs_scored,BulkDock Fragalysis export,openbind_a71ev2a_c2_elabs_scored_top80percent,openbind_a71ev2a_c2_elabs_scored_top80percent_despaghettified,syndirella_placed

>  <smina_score_min>  (160) 
-6.476

$$$$
P570150
     RDKit          3D

 21 23  0  0  0  0  0  0  0  0999 V2000
   11.7357   14.9494   18.1187 C   0  0  0  0  0  0  0  0  0  0  0  0
   11.0845   14.8815   19.3499 N   0  0  0  0  0  0  0  0  0  0  0  0
   11.5628   14.3648   20.6875 C   0  0  0  0  0  0  0  0  0  0  0  0
   12.5493   13.8382   20.9790 O   0  0  0  0  0  0  0  0  0  0  0  0
   10.5925   14.7156   21.7453 C   0  0  0  0  0  0  0  0  0  0  0  0
   10.0594   13.6432   22.4779 N   0  0  0  0  0  0  0  0  0  0  0  0
    9.1909   13.6335   23.7384 C   0  0  0  0  0  0  0  0  0  0  0  0
    8.8387   14.5100   24.4201 O   0  0  0  0  0  0  0  0  0  0  0  0
    8.8238   12.2525   24.0050 C   0  0  0  0  0  0  0  0  0  0  0  0
    9.4058   11.2331   23.3494 N   0  0  0  0  0  0  0  0  0  0  0  0
    8.8287   10.1374   23.8729 N   0  0  0  0  0  0  0  0  0  0  0  0
    9.3187    8.8443   23.4542 C   0  0  0  0  0  0  0  0  0  0  0  0
    7.8449   10.4338   24.7881 C   0  0  0  0  0  0  0  0  0  0  0  0
    6.9566    9.6520   25.5235 C   0  0  0  0  0  0  0  0  0  0  0  0
    6.0706   10.2810   26.4012 C   0  0  0  0  0  0  0  0  0  0  0  0
    6.0766   11.6599   26.5291 C   0  0  0  0  0  0  0  0  0  0  0  0
    5.2452   12.2461   27.3984 F   0  0  0  0  0  0  0  0  0  0  0  0
    6.9442   12.4498   25.7892 C   0  0  0  0  0  0  0  0  0  0  0  0
    7.8386   11.8170   24.9081 C   0  0  0  0  0  0  0  0  0  0  0  0
    9.8234   16.0166   21.6864 C   0  0  0  0  0  0  0  0  0  0  0  0
   11.0587   15.8945   22.5304 C   0  0  0  0  0  0  0  0  0  0  0  0
  1  2  1  0
  2  3  1  0
  3  4  2  0
  3  5  1  0
  5  6  1  0
  6  7  1  0
  7  8  2  0
  7  9  1  0
  9 10  2  0
 10 11  1  0
 11 12  1  0
 11 13  1  0
 13 14  2  0
 14 15  1  0
 15 16  2  0
 16 17  1  0
 16 18  1  0
 18 19  2  0
  5 20  1  0
 20 21  1  0
 21  5  1  0
 19  9  1  0
 19 13  1  0
M  END
>  <alias>  (161) 
None

>  <rmsd(smina/fragmenstein)>  (161) 
1.225

>  <smiles>  (161) 
CNC(=O)C1(NC(=O)c2nn(C)c3ccc(F)cc23)CC1

>  <gnina_score>  (161) 
5.546

>  <inspiration_score>  (161) 
None

>  <energy_score>  (161) 
-14.920373

>  <distance_score>  (161) 
0.883642

>  <gnina_score_min>  (161) 
5.771

>  <inchikey>  (161) 
BUHIYNCMPMWOBW-UHFFFAOYSA-N

>  <exports>  (161) 
['/opt/xchem-fragalysis-2/maxwin/BulkDock/OUTPUTS/openbind_a71ev2a_c2_elabs_1LOUU54.sdf', '/opt/xchem-fragalysis-2/maxwin/BulkDock/OUTPUTS/openbind_a71ev2a_c2_elabs_1LSYIDY.sdf']

>  <name>  (161) 
P570150

>  <ref_pdb>  (161) 
A2339a

>  <subsites>  (161) 
None

>  <HIPPO Pose ID>  (161) 
570150

>  <ref_mols>  (161) 
A2339a

>  <HIPPO Compound ID>  (161) 
411101

>  <tags>  (161) 
openbind_a71ev2a_c2_elabs,syndirella_product,openbind_a71ev2a_c2_elabs_scored,BulkDock Fragalysis export,openbind_a71ev2a_c2_elabs_scored_top80percent,openbind_a71ev2a_c2_elabs_scored_top80percent_despaghettified,syndirella_placed

>  <smina_score_min>  (161) 
-6.072

$$$$
P570151
     RDKit          3D

 21 23  0  0  0  0  0  0  0  0999 V2000
   11.2884   15.9324   26.0792 C   0  0  0  0  0  0  0  0  0  0  0  0
   11.1752   14.9311   25.0155 N   0  0  0  0  0  0  0  0  0  0  0  0
   10.1067   14.0602   25.4957 C   0  0  0  0  0  0  0  0  0  0  0  0
   10.8550   15.4688   23.6508 C   0  0  0  0  0  0  0  0  0  0  0  0
   11.0031   14.5432   22.4423 C   0  0  0  0  0  0  0  0  0  0  0  0
   10.2699   13.4058   22.7269 N   0  0  0  0  0  0  0  0  0  0  0  0
    8.7774   13.2203   22.9358 C   0  0  0  0  0  0  0  0  0  0  0  0
    7.9024   13.9748   22.8284 O   0  0  0  0  0  0  0  0  0  0  0  0
    8.5872   11.8816   23.4237 C   0  0  0  0  0  0  0  0  0  0  0  0
    9.3763   10.8568   23.0827 N   0  0  0  0  0  0  0  0  0  0  0  0
    8.8268    9.8224   23.7412 N   0  0  0  0  0  0  0  0  0  0  0  0
    9.3193    8.5025   23.4447 C   0  0  0  0  0  0  0  0  0  0  0  0
    7.8582   10.2089   24.6411 C   0  0  0  0  0  0  0  0  0  0  0  0
    7.0332    9.5275   25.5275 C   0  0  0  0  0  0  0  0  0  0  0  0
    6.1757   10.2464   26.3648 C   0  0  0  0  0  0  0  0  0  0  0  0
    6.1366   11.6264   26.2967 C   0  0  0  0  0  0  0  0  0  0  0  0
    5.3562   12.3084   27.1439 F   0  0  0  0  0  0  0  0  0  0  0  0
    6.8906   12.3153   25.3580 C   0  0  0  0  0  0  0  0  0  0  0  0
    7.7397   11.5793   24.5076 C   0  0  0  0  0  0  0  0  0  0  0  0
   10.8707   15.1733   21.0701 C   0  0  0  0  0  0  0  0  0  0  0  0
   12.1765   14.5877   21.5108 C   0  0  0  0  0  0  0  0  0  0  0  0
  1  2  1  0
  2  3  1  0
  2  4  1  0
  4  5  1  0
  5  6  1  0
  6  7  1  0
  7  8  2  0
  7  9  1  0
  9 10  2  0
 10 11  1  0
 11 12  1  0
 11 13  1  0
 13 14  2  0
 14 15  1  0
 15 16  2  0
 16 17  1  0
 16 18  1  0
 18 19  2  0
  5 20  1  0
 20 21  1  0
 21  5  1  0
 19  9  1  0
 19 13  1  0
M  END
>  <alias>  (162) 
None

>  <rmsd(smina/fragmenstein)>  (162) 
0.742

>  <smiles>  (162) 
CN(C)CC1(NC(=O)c2nn(C)c3ccc(F)cc23)CC1

>  <gnina_score>  (162) 
5.724

>  <inspiration_score>  (162) 
None

>  <energy_score>  (162) 
-21.643235

>  <distance_score>  (162) 
0.802231

>  <gnina_score_min>  (162) 
5.483

>  <inchikey>  (162) 
WREYPWVTFYHUHM-UHFFFAOYSA-N

>  <exports>  (162) 
['/opt/xchem-fragalysis-2/maxwin/BulkDock/OUTPUTS/openbind_a71ev2a_c2_elabs_1LOUU54.sdf', '/opt/xchem-fragalysis-2/maxwin/BulkDock/OUTPUTS/openbind_a71ev2a_c2_elabs_1LSYIDY.sdf']

>  <name>  (162) 
P570151

>  <ref_pdb>  (162) 
A2339a

>  <subsites>  (162) 
None

>  <HIPPO Pose ID>  (162) 
570151

>  <ref_mols>  (162) 
A2339a

>  <HIPPO Compound ID>  (162) 
411103

>  <tags>  (162) 
openbind_a71ev2a_c2_elabs,syndirella_product,openbind_a71ev2a_c2_elabs_scored,BulkDock Fragalysis export,openbind_a71ev2a_c2_elabs_scored_top80percent,openbind_a71ev2a_c2_elabs_scored_top80percent_despaghettified,syndirella_placed

>  <smina_score_min>  (162) 
-4.995

$$$$
P570152
     RDKit          3D

 21 23  0  0  0  0  0  0  0  0999 V2000
    9.4338    8.8462   23.3931 C   0  0  0  0  0  0  0  0  0  0  0  0
    8.8751   10.1460   23.6871 N   0  0  0  0  0  0  0  0  0  0  0  0
    9.3394   11.2081   23.0041 N   0  0  0  0  0  0  0  0  0  0  0  0
    8.6010   12.2412   23.4518 C   0  0  0  0  0  0  0  0  0  0  0  0
    8.8237   13.6059   22.9654 C   0  0  0  0  0  0  0  0  0  0  0  0
    8.1649   14.4975   23.3241 O   0  0  0  0  0  0  0  0  0  0  0  0
   10.0663   13.5855   22.0610 N   0  0  0  0  0  0  0  0  0  0  0  0
   10.8015   14.6405   21.4968 C   0  0  0  0  0  0  0  0  0  0  0  0
   11.9671   15.0096   22.4019 C   0  0  0  0  0  0  0  0  0  0  0  0
   12.0349   14.1729   23.7143 C   0  0  0  0  0  0  0  0  0  0  0  0
   10.9780   14.5881   24.7499 C   0  0  0  0  0  0  0  0  0  0  0  0
   11.5170   15.2240   25.9002 O   0  0  0  0  0  0  0  0  0  0  0  0
   10.0846   15.7334   20.7427 C   0  0  0  0  0  0  0  0  0  0  0  0
   11.0321   14.8285   20.0249 C   0  0  0  0  0  0  0  0  0  0  0  0
    7.7677   11.8564   24.5295 C   0  0  0  0  0  0  0  0  0  0  0  0
    6.9075   12.5217   25.4228 C   0  0  0  0  0  0  0  0  0  0  0  0
    6.1688   11.7605   26.3221 C   0  0  0  0  0  0  0  0  0  0  0  0
    5.3671   12.3773   27.1987 F   0  0  0  0  0  0  0  0  0  0  0  0
    6.2425   10.3764   26.3305 C   0  0  0  0  0  0  0  0  0  0  0  0
    7.1162    9.7132   25.4666 C   0  0  0  0  0  0  0  0  0  0  0  0
    7.9045   10.4744   24.6029 C   0  0  0  0  0  0  0  0  0  0  0  0
  1  2  1  0
  2  3  1  0
  3  4  2  0
  4  5  1  0
  5  6  2  0
  5  7  1  0
  7  8  1  0
  8  9  1  0
  9 10  1  0
 10 11  1  0
 11 12  1  0
  8 13  1  0
 13 14  1  0
  4 15  1  0
 15 16  2  0
 16 17  1  0
 17 18  1  0
 17 19  2  0
 19 20  1  0
 20 21  2  0
 21  2  1  0
 14  8  1  0
 21 15  1  0
M  END
>  <alias>  (163) 
None

>  <rmsd(smina/fragmenstein)>  (163) 
0.907

>  <smiles>  (163) 
Cn1nc(C(=O)NC2(CCCO)CC2)c2cc(F)ccc21

>  <gnina_score>  (163) 
5.638

>  <inspiration_score>  (163) 
None

>  <energy_score>  (163) 
-4.273146

>  <distance_score>  (163) 
0.698055

>  <gnina_score_min>  (163) 
5.258

>  <inchikey>  (163) 
NXHFAHWIJMLVQR-UHFFFAOYSA-N

>  <exports>  (163) 
['/opt/xchem-fragalysis-2/maxwin/BulkDock/OUTPUTS/openbind_a71ev2a_c2_elabs_1LOUU54.sdf', '/opt/xchem-fragalysis-2/maxwin/BulkDock/OUTPUTS/openbind_a71ev2a_c2_elabs_1LSYIDY.sdf']

>  <name>  (163) 
P570152

>  <ref_pdb>  (163) 
A2339a

>  <subsites>  (163) 
None

>  <HIPPO Pose ID>  (163) 
570152

>  <ref_mols>  (163) 
A2339a

>  <HIPPO Compound ID>  (163) 
411104

>  <tags>  (163) 
openbind_a71ev2a_c2_elabs,syndirella_product,openbind_a71ev2a_c2_elabs_scored,BulkDock Fragalysis export,openbind_a71ev2a_c2_elabs_scored_top80percent,openbind_a71ev2a_c2_elabs_scored_top80percent_despaghettified,syndirella_placed

>  <smina_score_min>  (163) 
-5.534

$$$$
P570160
     RDKit          3D

 21 23  0  0  0  0  0  0  0  0999 V2000
    8.9536   15.3708   25.8001 C   0  0  0  0  0  0  0  0  0  0  0  0
   10.1633   14.4991   25.5174 C   0  0  0  0  0  0  0  0  0  0  0  0
   11.2153   15.0639   24.5627 C   0  0  0  0  0  0  0  0  0  0  0  0
   10.8647   15.5445   23.1310 C   0  0  0  0  0  0  0  0  0  0  0  0
   10.9534   14.5121   22.0402 C   0  0  0  0  0  0  0  0  0  0  0  0
   10.2482   13.3946   22.4631 N   0  0  0  0  0  0  0  0  0  0  0  0
    8.8035   13.2525   22.9278 C   0  0  0  0  0  0  0  0  0  0  0  0
    7.9424   14.0313   22.9607 O   0  0  0  0  0  0  0  0  0  0  0  0
    8.6384   11.9253   23.4684 C   0  0  0  0  0  0  0  0  0  0  0  0
    9.4220   10.8995   23.1134 N   0  0  0  0  0  0  0  0  0  0  0  0
    8.8699    9.8567   23.7525 N   0  0  0  0  0  0  0  0  0  0  0  0
    9.3613    8.5401   23.4358 C   0  0  0  0  0  0  0  0  0  0  0  0
    7.8901   10.2292   24.6454 C   0  0  0  0  0  0  0  0  0  0  0  0
    7.0577    9.5293   25.5111 C   0  0  0  0  0  0  0  0  0  0  0  0
    6.1843   10.2320   26.3451 C   0  0  0  0  0  0  0  0  0  0  0  0
    6.1315   11.6125   26.2879 C   0  0  0  0  0  0  0  0  0  0  0  0
    5.3265   12.2769   27.1258 F   0  0  0  0  0  0  0  0  0  0  0  0
    6.8930   12.3177   25.3676 C   0  0  0  0  0  0  0  0  0  0  0  0
    7.7725   11.6030   24.5312 C   0  0  0  0  0  0  0  0  0  0  0  0
   12.1230   14.4883   21.1048 C   0  0  0  0  0  0  0  0  0  0  0  0
   10.8016   15.0039   20.6216 C   0  0  0  0  0  0  0  0  0  0  0  0
  1  2  1  0
  2  3  1  0
  3  4  1  0
  4  5  1  0
  5  6  1  0
  6  7  1  0
  7  8  2  0
  7  9  1  0
  9 10  2  0
 10 11  1  0
 11 12  1  0
 11 13  1  0
 13 14  2  0
 14 15  1  0
 15 16  2  0
 16 17  1  0
 16 18  1  0
 18 19  2  0
  5 20  1  0
 20 21  1  0
 21  5  1  0
 19  9  1  0
 19 13  1  0
M  END
>  <alias>  (164) 
None

>  <rmsd(smina/fragmenstein)>  (164) 
0.793

>  <smiles>  (164) 
CCCCC1(NC(=O)c2nn(C)c3ccc(F)cc23)CC1

>  <gnina_score>  (164) 
5.929

>  <inspiration_score>  (164) 
None

>  <energy_score>  (164) 
-37.802258

>  <distance_score>  (164) 
0.71674

>  <gnina_score_min>  (164) 
5.725

>  <inchikey>  (164) 
JODNIXWZPVYCQS-UHFFFAOYSA-N

>  <exports>  (164) 
['/opt/xchem-fragalysis-2/maxwin/BulkDock/OUTPUTS/openbind_a71ev2a_c2_elabs_1LOUU54.sdf', '/opt/xchem-fragalysis-2/maxwin/BulkDock/OUTPUTS/openbind_a71ev2a_c2_elabs_1LSYIDY.sdf']

>  <name>  (164) 
P570160

>  <ref_pdb>  (164) 
A2339a

>  <subsites>  (164) 
None

>  <HIPPO Pose ID>  (164) 
570160

>  <ref_mols>  (164) 
A2339a

>  <HIPPO Compound ID>  (164) 
411108

>  <tags>  (164) 
openbind_a71ev2a_c2_elabs,syndirella_product,openbind_a71ev2a_c2_elabs_scored,BulkDock Fragalysis export,openbind_a71ev2a_c2_elabs_scored_top80percent,openbind_a71ev2a_c2_elabs_scored_top80percent_despaghettified,syndirella_placed

>  <smina_score_min>  (164) 
-5.805

$$$$
P570164
     RDKit          3D

 21 24  0  0  0  0  0  0  0  0999 V2000
    9.3570    8.5929   23.3758 C   0  0  0  0  0  0  0  0  0  0  0  0
    9.0220    9.9593   23.6917 N   0  0  0  0  0  0  0  0  0  0  0  0
    9.7480   10.9345   23.1218 N   0  0  0  0  0  0  0  0  0  0  0  0
    9.3162   12.0579   23.7160 C   0  0  0  0  0  0  0  0  0  0  0  0
    9.9800   13.3376   23.4701 C   0  0  0  0  0  0  0  0  0  0  0  0
    9.7573   14.2595   24.1510 O   0  0  0  0  0  0  0  0  0  0  0  0
   10.9363   13.1897   22.2683 N   0  0  0  0  0  0  0  0  0  0  0  0
   11.8592   14.0872   21.7283 C   0  0  1  0  0  0  0  0  0  0  0  0
   12.3144   14.4406   20.3593 C   0  0  0  0  0  0  0  0  0  0  0  0
   11.1706   15.1714   20.9225 C   0  0  2  0  0  0  0  0  0  0  0  0
   10.9705   16.4019   21.6701 C   0  0  0  0  0  0  0  0  0  0  0  0
    9.5987   16.5326   21.0045 C   0  0  1  0  0  0  0  0  0  0  0  0
    9.4066   17.7043   20.1880 O   0  0  0  0  0  0  0  0  0  0  0  0
    9.8439   15.2096   20.2730 C   0  0  0  0  0  0  0  0  0  0  0  0
    8.2306   11.8060   24.5962 C   0  0  0  0  0  0  0  0  0  0  0  0
    7.3949   12.5838   25.4231 C   0  0  0  0  0  0  0  0  0  0  0  0
    6.4398   11.9375   26.2056 C   0  0  0  0  0  0  0  0  0  0  0  0
    5.6697   12.6553   27.0339 F   0  0  0  0  0  0  0  0  0  0  0  0
    6.2912   10.5601   26.1770 C   0  0  0  0  0  0  0  0  0  0  0  0
    7.1089    9.7820   25.3570 C   0  0  0  0  0  0  0  0  0  0  0  0
    8.0739   10.4234   24.5734 C   0  0  0  0  0  0  0  0  0  0  0  0
  1  2  1  0
  2  3  1  0
  3  4  2  0
  4  5  1  0
  5  6  2  0
  5  7  1  0
  8  7  1  6
  8  9  1  0
 10  9  1  6
 10 11  1  0
 11 12  1  0
 12 13  1  6
 12 14  1  0
  4 15  1  0
 15 16  2  0
 16 17  1  0
 17 18  1  0
 17 19  2  0
 19 20  1  0
 20 21  2  0
 21  2  1  0
 10  8  1  0
 21 15  1  0
 14 10  1  0
M  END
>  <alias>  (165) 
None

>  <rmsd(smina/fragmenstein)>  (165) 
0.526

>  <smiles>  (165) 
Cn1nc(C(=O)N[C@H]2C[C@]23C[C@@H](O)C3)c2cc(F)ccc21

>  <gnina_score>  (165) 
5.714

>  <inspiration_score>  (165) 
None

>  <energy_score>  (165) 
-6.295288

>  <distance_score>  (165) 
0.427172

>  <gnina_score_min>  (165) 
5.795

>  <inchikey>  (165) 
YZLGDFCZQXNLIW-FMSQNYNMSA-N

>  <exports>  (165) 
['/opt/xchem-fragalysis-2/maxwin/BulkDock/OUTPUTS/openbind_a71ev2a_c2_elabs_1LOUU54.sdf', '/opt/xchem-fragalysis-2/maxwin/BulkDock/OUTPUTS/openbind_a71ev2a_c2_elabs_1LSYIDY.sdf']

>  <name>  (165) 
P570164

>  <ref_pdb>  (165) 
A2339a

>  <subsites>  (165) 
None

>  <HIPPO Pose ID>  (165) 
570164

>  <ref_mols>  (165) 
A2339a

>  <HIPPO Compound ID>  (165) 
411109

>  <tags>  (165) 
openbind_a71ev2a_c2_elabs,syndirella_product,openbind_a71ev2a_c2_elabs_scored,BulkDock Fragalysis export,openbind_a71ev2a_c2_elabs_scored_top80percent,openbind_a71ev2a_c2_elabs_scored_top80percent_despaghettified,syndirella_placed

>  <smina_score_min>  (165) 
-7.282

$$$$
P570166
     RDKit          3D

 21 24  0  0  0  0  0  0  0  0999 V2000
    8.3311   14.5571   20.9862 C   0  0  0  0  0  0  0  0  0  0  0  0
    8.8303   15.7852   21.6041 C   0  0  2  0  0  0  0  0  0  0  0  0
    9.4306   16.9228   20.8331 C   0  0  0  0  0  0  0  0  0  0  0  0
   10.2904   16.0876   21.7505 C   0  0  2  0  0  0  0  0  0  0  0  0
   11.5745   15.5168   21.2556 C   0  0  2  0  0  0  0  0  0  0  0  0
   11.8293   14.4888   20.2190 C   0  0  0  0  0  0  0  0  0  0  0  0
   11.9956   14.1441   21.6789 C   0  0  2  0  0  0  0  0  0  0  0  0
   11.1076   13.2417   22.2894 N   0  0  0  0  0  0  0  0  0  0  0  0
   10.3073   13.3565   23.6074 C   0  0  0  0  0  0  0  0  0  0  0  0
   10.2008   14.2496   24.3538 O   0  0  0  0  0  0  0  0  0  0  0  0
    9.5368   12.1149   23.7828 C   0  0  0  0  0  0  0  0  0  0  0  0
    9.8898   11.0017   23.1189 N   0  0  0  0  0  0  0  0  0  0  0  0
    9.1331   10.0342   23.6551 N   0  0  0  0  0  0  0  0  0  0  0  0
    9.4415    8.6669   23.3125 C   0  0  0  0  0  0  0  0  0  0  0  0
    8.1841   10.5053   24.5308 C   0  0  0  0  0  0  0  0  0  0  0  0
    7.1857    9.8686   25.2781 C   0  0  0  0  0  0  0  0  0  0  0  0
    6.3740   10.6525   26.0976 C   0  0  0  0  0  0  0  0  0  0  0  0
    6.5627   12.0251   26.1618 C   0  0  0  0  0  0  0  0  0  0  0  0
    5.7899   12.7434   26.9874 F   0  0  0  0  0  0  0  0  0  0  0  0
    7.5631   12.6629   25.4271 C   0  0  0  0  0  0  0  0  0  0  0  0
    8.3999   11.8815   24.6057 C   0  0  0  0  0  0  0  0  0  0  0  0
  2  1  1  6
  2  3  1  0
  4  3  1  6
  4  5  1  0
  5  6  1  6
  6  7  1  0
  7  8  1  1
  8  9  1  0
  9 10  2  0
  9 11  1  0
 11 12  2  0
 12 13  1  0
 13 14  1  0
 13 15  1  0
 15 16  2  0
 16 17  1  0
 17 18  2  0
 18 19  1  0
 18 20  1  0
 20 21  2  0
  4  2  1  0
  7  5  1  0
 21 11  1  0
 21 15  1  0
M  END
>  <alias>  (166) 
None

>  <rmsd(smina/fragmenstein)>  (166) 
0.586

>  <smiles>  (166) 
C[C@@H]1C[C@@H]1[C@@H]1C[C@@H]1NC(=O)c1nn(C)c2ccc(F)cc12

>  <gnina_score>  (166) 
5.811

>  <inspiration_score>  (166) 
None

>  <energy_score>  (166) 
-18.586088

>  <distance_score>  (166) 
0.55963

>  <gnina_score_min>  (166) 
5.722

>  <inchikey>  (166) 
WMPKOAKKEZCEAT-BQUSMCMVSA-N

>  <exports>  (166) 
['/opt/xchem-fragalysis-2/maxwin/BulkDock/OUTPUTS/openbind_a71ev2a_c2_elabs_1LOUU54.sdf', '/opt/xchem-fragalysis-2/maxwin/BulkDock/OUTPUTS/openbind_a71ev2a_c2_elabs_1LSYIDY.sdf']

>  <name>  (166) 
P570166

>  <ref_pdb>  (166) 
A2339a

>  <subsites>  (166) 
None

>  <HIPPO Pose ID>  (166) 
570166

>  <ref_mols>  (166) 
A2339a

>  <HIPPO Compound ID>  (166) 
411110

>  <tags>  (166) 
openbind_a71ev2a_c2_elabs,syndirella_product,openbind_a71ev2a_c2_elabs_scored,BulkDock Fragalysis export,openbind_a71ev2a_c2_elabs_scored_top80percent,openbind_a71ev2a_c2_elabs_scored_top80percent_despaghettified,syndirella_placed

>  <smina_score_min>  (166) 
-6.851

$$$$
P570176
     RDKit          3D

 21 24  0  0  0  0  0  0  0  0999 V2000
    9.5512    8.6777   23.1570 C   0  0  0  0  0  0  0  0  0  0  0  0
    9.2289   10.0143   23.5905 N   0  0  0  0  0  0  0  0  0  0  0  0
    9.9632   11.0298   23.1021 N   0  0  0  0  0  0  0  0  0  0  0  0
    9.5629   12.0896   23.8174 C   0  0  0  0  0  0  0  0  0  0  0  0
   10.2214   13.3891   23.7259 C   0  0  0  0  0  0  0  0  0  0  0  0
   10.1272   14.1502   24.6089 O   0  0  0  0  0  0  0  0  0  0  0  0
   10.8820   13.5437   22.3339 N   0  0  0  0  0  0  0  0  0  0  0  0
   11.4749   14.6876   21.7073 C   0  0  2  0  0  0  0  0  0  0  0  0
   10.9884   15.9391   22.3378 C   0  0  0  0  0  0  0  0  0  0  0  0
    9.4598   16.0677   22.0232 C   0  0  0  0  0  0  0  0  0  0  0  0
    8.8663   15.0662   21.0470 C   0  0  0  0  0  0  0  0  0  0  0  0
    9.8269   14.6807   19.9347 C   0  0  0  0  0  0  0  0  0  0  0  0
   11.2034   15.0617   20.2424 C   0  0  2  0  0  0  0  0  0  0  0  0
   12.4766   14.4329   20.6298 C   0  0  0  0  0  0  0  0  0  0  0  0
    8.4195   11.7880   24.6076 C   0  0  0  0  0  0  0  0  0  0  0  0
    7.5380   12.5155   25.4336 C   0  0  0  0  0  0  0  0  0  0  0  0
    6.5509   11.8235   26.1321 C   0  0  0  0  0  0  0  0  0  0  0  0
    5.7379   12.4915   26.9615 F   0  0  0  0  0  0  0  0  0  0  0  0
    6.4233   10.4469   26.0288 C   0  0  0  0  0  0  0  0  0  0  0  0
    7.2816    9.7217   25.2002 C   0  0  0  0  0  0  0  0  0  0  0  0
    8.2591   10.4137   24.4792 C   0  0  0  0  0  0  0  0  0  0  0  0
  1  2  1  0
  2  3  1  0
  3  4  2  0
  4  5  1  0
  5  6  2  0
  5  7  1  0
  8  7  1  1
  8  9  1  0
  9 10  1  0
 10 11  1  0
 11 12  1  0
 13 12  1  6
 13 14  1  0
  4 15  1  0
 15 16  2  0
 16 17  1  0
 17 18  1  0
 17 19  2  0
 19 20  1  0
 20 21  2  0
 21  2  1  0
 13  8  1  0
 21 15  1  0
 14  8  1  0
M  END
>  <alias>  (167) 
None

>  <rmsd(smina/fragmenstein)>  (167) 
1.031

>  <smiles>  (167) 
Cn1nc(C(=O)N[C@]23CCCC[C@@H]2C3)c2cc(F)ccc21

>  <gnina_score>  (167) 
5.825

>  <inspiration_score>  (167) 
None

>  <energy_score>  (167) 
-10.51776

>  <distance_score>  (167) 
0.38209

>  <gnina_score_min>  (167) 
5.629

>  <inchikey>  (167) 
UOZZYZXRQNLQKB-HWPZZCPQSA-N

>  <exports>  (167) 
['/opt/xchem-fragalysis-2/maxwin/BulkDock/OUTPUTS/openbind_a71ev2a_c2_elabs_1LOUU54.sdf', '/opt/xchem-fragalysis-2/maxwin/BulkDock/OUTPUTS/openbind_a71ev2a_c2_elabs_1LSYIDY.sdf']

>  <name>  (167) 
P570176

>  <ref_pdb>  (167) 
A2339a

>  <subsites>  (167) 
None

>  <HIPPO Pose ID>  (167) 
570176

>  <ref_mols>  (167) 
A2339a

>  <HIPPO Compound ID>  (167) 
411111

>  <tags>  (167) 
openbind_a71ev2a_c2_elabs,syndirella_product,openbind_a71ev2a_c2_elabs_scored,BulkDock Fragalysis export,openbind_a71ev2a_c2_elabs_scored_top80percent,openbind_a71ev2a_c2_elabs_scored_top80percent_despaghettified,syndirella_placed

>  <smina_score_min>  (167) 
-5.921

$$$$
P570183
     RDKit          3D

 21 23  0  0  0  0  0  0  0  0999 V2000
   10.8768   15.8781   18.8590 C   0  0  0  0  0  0  0  0  0  0  0  0
   11.4765   15.4916   20.1277 N   0  0  0  0  0  0  0  0  0  0  0  0
   12.3256   14.3364   19.8876 C   0  0  0  0  0  0  0  0  0  0  0  0
   10.5345   15.2980   21.2516 C   0  0  0  0  0  0  0  0  0  0  0  0
   11.2112   15.0194   22.5981 C   0  0  0  0  0  0  0  0  0  0  0  0
   10.5707   13.8914   23.1695 N   0  0  0  0  0  0  0  0  0  0  0  0
    9.5034   13.8018   24.2494 C   0  0  0  0  0  0  0  0  0  0  0  0
    9.0247   14.6314   24.9067 O   0  0  0  0  0  0  0  0  0  0  0  0
    9.0457   12.4083   24.2861 C   0  0  0  0  0  0  0  0  0  0  0  0
    9.6250   11.4540   23.5289 N   0  0  0  0  0  0  0  0  0  0  0  0
    8.9613   10.3262   23.8524 N   0  0  0  0  0  0  0  0  0  0  0  0
    9.3922    9.0757   23.2642 C   0  0  0  0  0  0  0  0  0  0  0  0
    7.9523   10.5398   24.7617 C   0  0  0  0  0  0  0  0  0  0  0  0
    7.0466    9.6882   25.3929 C   0  0  0  0  0  0  0  0  0  0  0  0
    6.1145   10.2391   26.2757 C   0  0  0  0  0  0  0  0  0  0  0  0
    6.0935   11.6059   26.5063 C   0  0  0  0  0  0  0  0  0  0  0  0
    5.2123   12.1175   27.3737 F   0  0  0  0  0  0  0  0  0  0  0  0
    6.9976   12.4586   25.8888 C   0  0  0  0  0  0  0  0  0  0  0  0
    7.9532   11.9050   25.0196 C   0  0  0  0  0  0  0  0  0  0  0  0
    9.2569   16.1173   21.3660 C   0  0  0  0  0  0  0  0  0  0  0  0
    9.1614   14.7071   20.9218 C   0  0  0  0  0  0  0  0  0  0  0  0
  1  2  1  0
  2  3  1  0
  2  4  1  0
  4  5  1  0
  5  6  1  0
  6  7  1  0
  7  8  2  0
  7  9  1  0
  9 10  2  0
 10 11  1  0
 11 12  1  0
 11 13  1  0
 13 14  2  0
 14 15  1  0
 15 16  2  0
 16 17  1  0
 16 18  1  0
 18 19  2  0
  4 20  1  0
 20 21  1  0
 21  4  1  0
 19  9  1  0
 19 13  1  0
M  END
>  <alias>  (168) 
None

>  <rmsd(smina/fragmenstein)>  (168) 
0.582

>  <smiles>  (168) 
CN(C)C1(CNC(=O)c2nn(C)c3ccc(F)cc23)CC1

>  <gnina_score>  (168) 
5.815

>  <inspiration_score>  (168) 
None

>  <energy_score>  (168) 
-9.580252

>  <distance_score>  (168) 
0.879956

>  <gnina_score_min>  (168) 
5.678

>  <inchikey>  (168) 
HJRQSYCDPFEVSU-UHFFFAOYSA-N

>  <exports>  (168) 
['/opt/xchem-fragalysis-2/maxwin/BulkDock/OUTPUTS/openbind_a71ev2a_c2_elabs_1LOUU54.sdf', '/opt/xchem-fragalysis-2/maxwin/BulkDock/OUTPUTS/openbind_a71ev2a_c2_elabs_1LSYIDY.sdf']

>  <name>  (168) 
P570183

>  <ref_pdb>  (168) 
A2339a

>  <subsites>  (168) 
None

>  <HIPPO Pose ID>  (168) 
570183

>  <ref_mols>  (168) 
A2339a

>  <HIPPO Compound ID>  (168) 
411112

>  <tags>  (168) 
openbind_a71ev2a_c2_elabs,syndirella_product,openbind_a71ev2a_c2_elabs_scored,BulkDock Fragalysis export,openbind_a71ev2a_c2_elabs_scored_top80percent,openbind_a71ev2a_c2_elabs_scored_top80percent_despaghettified,syndirella_placed

>  <smina_score_min>  (168) 
-6.463

$$$$
P570188
     RDKit          3D

 21 23  0  0  0  0  0  0  0  0999 V2000
    9.9675   15.6161   19.1255 C   0  0  0  0  0  0  0  0  0  0  0  0
    9.9190   14.8874   20.4668 C   0  0  0  0  0  0  0  0  0  0  0  0
    8.7258   15.3318   21.3128 C   0  0  0  0  0  0  0  0  0  0  0  0
   11.2482   15.0984   21.1487 C   0  0  2  0  0  0  0  0  0  0  0  0
   11.4711   16.4371   21.6966 C   0  0  0  0  0  0  0  0  0  0  0  0
   12.3846   14.3201   20.5690 C   0  0  0  0  0  0  0  0  0  0  0  0
   11.9666   14.0415   21.9692 C   0  0  2  0  0  0  0  0  0  0  0  0
   11.0951   13.1146   22.5350 N   0  0  0  0  0  0  0  0  0  0  0  0
   10.1864   13.2224   23.7740 C   0  0  0  0  0  0  0  0  0  0  0  0
   10.0802   14.0764   24.5626 O   0  0  0  0  0  0  0  0  0  0  0  0
    9.3844   12.0054   23.8744 C   0  0  0  0  0  0  0  0  0  0  0  0
    9.7376   10.8982   23.2031 N   0  0  0  0  0  0  0  0  0  0  0  0
    8.9646    9.9371   23.7327 N   0  0  0  0  0  0  0  0  0  0  0  0
    9.2636    8.5666   23.4010 C   0  0  0  0  0  0  0  0  0  0  0  0
    8.0242   10.4148   24.6163 C   0  0  0  0  0  0  0  0  0  0  0  0
    7.0273    9.7931   25.3750 C   0  0  0  0  0  0  0  0  0  0  0  0
    6.2297   10.5834   26.2030 C   0  0  0  0  0  0  0  0  0  0  0  0
    6.4280   11.9534   26.2636 C   0  0  0  0  0  0  0  0  0  0  0  0
    5.6719   12.6818   27.0953 F   0  0  0  0  0  0  0  0  0  0  0  0
    7.4252   12.5788   25.5182 C   0  0  0  0  0  0  0  0  0  0  0  0
    8.2444   11.7871   24.6890 C   0  0  0  0  0  0  0  0  0  0  0  0
  1  2  1  0
  2  3  1  0
  4  2  1  0
  4  5  1  1
  4  6  1  0
  6  7  1  0
  7  8  1  6
  8  9  1  0
  9 10  2  0
  9 11  1  0
 11 12  2  0
 12 13  1  0
 13 14  1  0
 13 15  1  0
 15 16  2  0
 16 17  1  0
 17 18  2  0
 18 19  1  0
 18 20  1  0
 20 21  2  0
  7  4  1  0
 21 11  1  0
 21 15  1  0
M  END
>  <alias>  (169) 
None

>  <rmsd(smina/fragmenstein)>  (169) 
0.335

>  <smiles>  (169) 
CC(C)[C@]1(C)C[C@@H]1NC(=O)c1nn(C)c2ccc(F)cc12

>  <gnina_score>  (169) 
5.81

>  <inspiration_score>  (169) 
None

>  <energy_score>  (169) 
-30.08421

>  <distance_score>  (169) 
0.565156

>  <gnina_score_min>  (169) 
5.81

>  <inchikey>  (169) 
MCVQCISDNMBVGB-BBRMVZONSA-N

>  <exports>  (169) 
['/opt/xchem-fragalysis-2/maxwin/BulkDock/OUTPUTS/openbind_a71ev2a_c2_elabs_1LOUU54.sdf', '/opt/xchem-fragalysis-2/maxwin/BulkDock/OUTPUTS/openbind_a71ev2a_c2_elabs_1LSYIDY.sdf']

>  <name>  (169) 
P570188

>  <ref_pdb>  (169) 
A2339a

>  <subsites>  (169) 
None

>  <HIPPO Pose ID>  (169) 
570188

>  <ref_mols>  (169) 
A2339a

>  <HIPPO Compound ID>  (169) 
411115

>  <tags>  (169) 
openbind_a71ev2a_c2_elabs,syndirella_product,openbind_a71ev2a_c2_elabs_scored,BulkDock Fragalysis export,openbind_a71ev2a_c2_elabs_scored_top80percent,openbind_a71ev2a_c2_elabs_scored_top80percent_despaghettified,syndirella_placed

>  <smina_score_min>  (169) 
-6.414

$$$$
P570190
     RDKit          3D

 21 24  0  0  0  0  0  0  0  0999 V2000
    9.1615    9.1482   23.5796 C   0  0  0  0  0  0  0  0  0  0  0  0
    8.5719   10.4024   24.0009 N   0  0  0  0  0  0  0  0  0  0  0  0
    9.0011   11.5391   23.4293 N   0  0  0  0  0  0  0  0  0  0  0  0
    8.4020   12.5255   24.1386 C   0  0  0  0  0  0  0  0  0  0  0  0
    8.7633   13.9261   23.8868 C   0  0  0  0  0  0  0  0  0  0  0  0
    8.6613   14.7885   24.6615 O   0  0  0  0  0  0  0  0  0  0  0  0
    9.3618   13.9216   22.4834 N   0  0  0  0  0  0  0  0  0  0  0  0
   10.0380   14.9301   21.7745 C   0  0  0  0  0  0  0  0  0  0  0  0
   11.5731   14.7381   22.0144 C   0  0  0  0  0  0  0  0  0  0  0  0
   12.4709   15.6630   21.2633 C   0  0  0  0  0  0  0  0  0  0  0  0
   12.1736   14.1270   23.2761 C   0  0  0  0  0  0  0  0  0  0  0  0
   12.0154   13.2864   22.0661 C   0  0  0  0  0  0  0  0  0  0  0  0
    9.3684   16.2065   21.3522 C   0  0  0  0  0  0  0  0  0  0  0  0
    9.5682   15.1312   20.3440 C   0  0  0  0  0  0  0  0  0  0  0  0
    7.5199   12.0071   25.0946 C   0  0  0  0  0  0  0  0  0  0  0  0
    6.6563   12.5676   26.0437 C   0  0  0  0  0  0  0  0  0  0  0  0
    5.8739   11.7064   26.7977 C   0  0  0  0  0  0  0  0  0  0  0  0
    5.0553   12.2235   27.7187 F   0  0  0  0  0  0  0  0  0  0  0  0
    5.9247   10.3304   26.6266 C   0  0  0  0  0  0  0  0  0  0  0  0
    6.7941    9.7666   25.6920 C   0  0  0  0  0  0  0  0  0  0  0  0
    7.6026   10.6232   24.9478 C   0  0  0  0  0  0  0  0  0  0  0  0
  1  2  1  0
  2  3  1  0
  3  4  2  0
  4  5  1  0
  5  6  2  0
  5  7  1  0
  7  8  1  0
  8  9  1  0
  9 10  1  0
  9 11  1  0
 11 12  1  0
  8 13  1  0
 13 14  1  0
  4 15  1  0
 15 16  2  0
 16 17  1  0
 17 18  1  0
 17 19  2  0
 19 20  1  0
 20 21  2  0
 21  2  1  0
 14  8  1  0
 21 15  1  0
 12  9  1  0
M  END
>  <alias>  (170) 
None

>  <rmsd(smina/fragmenstein)>  (170) 
0.374

>  <smiles>  (170) 
Cn1nc(C(=O)NC2(C3(C)CC3)CC2)c2cc(F)ccc21

>  <gnina_score>  (170) 
5.73

>  <inspiration_score>  (170) 
None

>  <energy_score>  (170) 
-30.790454

>  <distance_score>  (170) 
1.177752

>  <gnina_score_min>  (170) 
5.635

>  <inchikey>  (170) 
CSRJACCAHRKWSL-UHFFFAOYSA-N

>  <exports>  (170) 
['/opt/xchem-fragalysis-2/maxwin/BulkDock/OUTPUTS/openbind_a71ev2a_c2_elabs_1LOUU54.sdf', '/opt/xchem-fragalysis-2/maxwin/BulkDock/OUTPUTS/openbind_a71ev2a_c2_elabs_1LSYIDY.sdf']

>  <name>  (170) 
P570190

>  <ref_pdb>  (170) 
A2339a

>  <subsites>  (170) 
None

>  <HIPPO Pose ID>  (170) 
570190

>  <ref_mols>  (170) 
A2339a

>  <HIPPO Compound ID>  (170) 
411116

>  <tags>  (170) 
openbind_a71ev2a_c2_elabs,syndirella_product,openbind_a71ev2a_c2_elabs_scored,BulkDock Fragalysis export,openbind_a71ev2a_c2_elabs_scored_top80percent,openbind_a71ev2a_c2_elabs_scored_top80percent_despaghettified,syndirella_placed

>  <smina_score_min>  (170) 
-7.082

$$$$
P570191
     RDKit          3D

 21 24  0  0  0  0  0  0  0  0999 V2000
    9.5024    8.9151   23.1137 C   0  0  0  0  0  0  0  0  0  0  0  0
    9.1263   10.2251   23.5950 N   0  0  0  0  0  0  0  0  0  0  0  0
    9.8126   11.2953   23.1507 N   0  0  0  0  0  0  0  0  0  0  0  0
    9.2839   12.3335   23.8221 C   0  0  0  0  0  0  0  0  0  0  0  0
    9.8790   13.6758   23.7513 C   0  0  0  0  0  0  0  0  0  0  0  0
    9.5317   14.5125   24.4878 O   0  0  0  0  0  0  0  0  0  0  0  0
   10.9999   13.6786   22.6917 N   0  0  0  0  0  0  0  0  0  0  0  0
   11.9629   14.6492   22.3892 C   0  0  2  0  0  0  0  0  0  0  0  0
   11.4648   15.9202   21.7399 C   0  0  2  0  0  0  0  0  0  0  0  0
   10.1237   16.0471   21.0899 C   0  0  0  0  0  0  0  0  0  0  0  0
    9.8970   15.0079   20.0065 C   0  0  0  0  0  0  0  0  0  0  0  0
   11.0926   14.9120   19.0744 C   0  0  0  0  0  0  0  0  0  0  0  0
   12.3296   14.4467   19.8074 C   0  0  0  0  0  0  0  0  0  0  0  0
   12.5440   15.1282   21.0927 C   0  0  2  0  0  0  0  0  0  0  0  0
    8.1960   11.9270   24.6412 C   0  0  0  0  0  0  0  0  0  0  0  0
    7.2929   12.5679   25.5126 C   0  0  0  0  0  0  0  0  0  0  0  0
    6.3850   11.7894   26.2266 C   0  0  0  0  0  0  0  0  0  0  0  0
    5.5513   12.3823   27.0917 F   0  0  0  0  0  0  0  0  0  0  0  0
    6.3538   10.4090   26.0956 C   0  0  0  0  0  0  0  0  0  0  0  0
    7.2430    9.7639   25.2337 C   0  0  0  0  0  0  0  0  0  0  0  0
    8.1495   10.5429   24.5083 C   0  0  0  0  0  0  0  0  0  0  0  0
  1  2  1  0
  2  3  1  0
  3  4  2  0
  4  5  1  0
  5  6  2  0
  5  7  1  0
  8  7  1  6
  8  9  1  0
  9 10  1  6
 10 11  1  0
 11 12  1  0
 12 13  1  0
 14 13  1  6
  4 15  1  0
 15 16  2  0
 16 17  1  0
 17 18  1  0
 17 19  2  0
 19 20  1  0
 20 21  2  0
 21  2  1  0
 14  8  1  0
 21 15  1  0
 14  9  1  0
M  END
>  <alias>  (171) 
None

>  <rmsd(smina/fragmenstein)>  (171) 
0.189

>  <smiles>  (171) 
Cn1nc(C(=O)N[C@@H]2[C@@H]3CCCC[C@@H]32)c2cc(F)ccc21

>  <gnina_score>  (171) 
5.81

>  <inspiration_score>  (171) 
None

>  <energy_score>  (171) 
-38.829042

>  <distance_score>  (171) 
0.577489

>  <gnina_score_min>  (171) 
5.833

>  <inchikey>  (171) 
KVUYQRHUMOGMQC-GNXNZQSNSA-N

>  <exports>  (171) 
['/opt/xchem-fragalysis-2/maxwin/BulkDock/OUTPUTS/openbind_a71ev2a_c2_elabs_1LOUU54.sdf', '/opt/xchem-fragalysis-2/maxwin/BulkDock/OUTPUTS/openbind_a71ev2a_c2_elabs_1LSYIDY.sdf']

>  <name>  (171) 
P570191

>  <ref_pdb>  (171) 
A2339a

>  <subsites>  (171) 
None

>  <HIPPO Pose ID>  (171) 
570191

>  <ref_mols>  (171) 
A2339a

>  <HIPPO Compound ID>  (171) 
411117

>  <tags>  (171) 
openbind_a71ev2a_c2_elabs,syndirella_product,openbind_a71ev2a_c2_elabs_scored,BulkDock Fragalysis export,openbind_a71ev2a_c2_elabs_scored_top80percent,openbind_a71ev2a_c2_elabs_scored_top80percent_despaghettified,syndirella_placed

>  <smina_score_min>  (171) 
-7.983

$$$$
P570194
     RDKit          3D

 21 23  0  0  0  0  0  0  0  0999 V2000
    9.5992    8.8531   23.1547 C   0  0  0  0  0  0  0  0  0  0  0  0
    9.1576   10.1699   23.5538 N   0  0  0  0  0  0  0  0  0  0  0  0
    9.7295   11.2428   22.9745 N   0  0  0  0  0  0  0  0  0  0  0  0
    9.0955   12.2943   23.5179 C   0  0  0  0  0  0  0  0  0  0  0  0
    9.3882   13.6706   23.0985 C   0  0  0  0  0  0  0  0  0  0  0  0
    8.8825   14.5647   23.6536 O   0  0  0  0  0  0  0  0  0  0  0  0
   10.3912   13.6600   21.9196 N   0  0  0  0  0  0  0  0  0  0  0  0
   11.0457   14.7386   21.2488 C   0  0  0  0  0  0  0  0  0  0  0  0
   10.9351   16.0499   21.9686 C   0  0  0  0  0  0  0  0  0  0  0  0
    9.7341   16.6075   21.7105 F   0  0  0  0  0  0  0  0  0  0  0  0
   11.9037   16.9001   21.5788 F   0  0  0  0  0  0  0  0  0  0  0  0
   11.0884   15.8799   23.3062 F   0  0  0  0  0  0  0  0  0  0  0  0
   11.0839   14.8381   19.7400 C   0  0  0  0  0  0  0  0  0  0  0  0
   12.3179   14.4593   20.4889 C   0  0  0  0  0  0  0  0  0  0  0  0
    8.1429   11.8866   24.4918 C   0  0  0  0  0  0  0  0  0  0  0  0
    7.2381   12.5356   25.3561 C   0  0  0  0  0  0  0  0  0  0  0  0
    6.4046   11.7594   26.1584 C   0  0  0  0  0  0  0  0  0  0  0  0
    5.5675   12.3614   27.0136 F   0  0  0  0  0  0  0  0  0  0  0  0
    6.4326   10.3738   26.1045 C   0  0  0  0  0  0  0  0  0  0  0  0
    7.3296    9.7207   25.2569 C   0  0  0  0  0  0  0  0  0  0  0  0
    8.1847   10.4963   24.4684 C   0  0  0  0  0  0  0  0  0  0  0  0
  1  2  1  0
  2  3  1  0
  3  4  2  0
  4  5  1  0
  5  6  2  0
  5  7  1  0
  7  8  1  0
  8  9  1  0
  9 10  1  0
  9 11  1  0
  9 12  1  0
  8 13  1  0
 13 14  1  0
  4 15  1  0
 15 16  2  0
 16 17  1  0
 17 18  1  0
 17 19  2  0
 19 20  1  0
 20 21  2  0
 21  2  1  0
 14  8  1  0
 21 15  1  0
M  END
>  <alias>  (172) 
None

>  <rmsd(smina/fragmenstein)>  (172) 
1.305

>  <smiles>  (172) 
Cn1nc(C(=O)NC2(C(F)(F)F)CC2)c2cc(F)ccc21

>  <gnina_score>  (172) 
5.637

>  <inspiration_score>  (172) 
None

>  <energy_score>  (172) 
-26.507023

>  <distance_score>  (172) 
0.397751

>  <gnina_score_min>  (172) 
5.737

>  <inchikey>  (172) 
PACRKCVIAPFYLL-UHFFFAOYSA-N

>  <exports>  (172) 
['/opt/xchem-fragalysis-2/maxwin/BulkDock/OUTPUTS/openbind_a71ev2a_c2_elabs_1LOUU54.sdf', '/opt/xchem-fragalysis-2/maxwin/BulkDock/OUTPUTS/openbind_a71ev2a_c2_elabs_1LSYIDY.sdf']

>  <name>  (172) 
P570194

>  <ref_pdb>  (172) 
A2339a

>  <subsites>  (172) 
None

>  <HIPPO Pose ID>  (172) 
570194

>  <ref_mols>  (172) 
A2339a

>  <HIPPO Compound ID>  (172) 
411119

>  <tags>  (172) 
openbind_a71ev2a_c2_elabs,syndirella_product,openbind_a71ev2a_c2_elabs_scored,BulkDock Fragalysis export,openbind_a71ev2a_c2_elabs_scored_top80percent,openbind_a71ev2a_c2_elabs_scored_top80percent_despaghettified,syndirella_placed

>  <smina_score_min>  (172) 
-8.344

$$$$
P570196
     RDKit          3D

 21 24  0  0  0  0  0  0  0  0999 V2000
    9.3436    8.6944   23.0881 C   0  0  0  0  0  0  0  0  0  0  0  0
    9.1038   10.0212   23.6015 N   0  0  0  0  0  0  0  0  0  0  0  0
    9.8697   11.0207   23.1406 N   0  0  0  0  0  0  0  0  0  0  0  0
    9.4478   12.1027   23.8123 C   0  0  0  0  0  0  0  0  0  0  0  0
   10.1579   13.3759   23.6936 C   0  0  0  0  0  0  0  0  0  0  0  0
    9.9041   14.2695   24.4010 O   0  0  0  0  0  0  0  0  0  0  0  0
   11.1545   13.2817   22.5190 N   0  0  0  0  0  0  0  0  0  0  0  0
   11.9523   14.2612   21.9269 C   0  0  1  0  0  0  0  0  0  0  0  0
   12.4393   14.5167   20.5494 C   0  0  0  0  0  0  0  0  0  0  0  0
   11.1540   15.1405   20.9717 C   0  0  2  0  0  0  0  0  0  0  0  0
   10.8787   16.4586   21.5523 C   0  0  0  0  0  0  0  0  0  0  0  0
    9.6323   16.9093   20.8188 C   0  0  0  0  0  0  0  0  0  0  0  0
    8.9147   15.6779   20.6397 O   0  0  0  0  0  0  0  0  0  0  0  0
    9.9184   14.7326   20.2532 C   0  0  0  0  0  0  0  0  0  0  0  0
    8.3186   11.8106   24.6210 C   0  0  0  0  0  0  0  0  0  0  0  0
    7.4543   12.5438   25.4587 C   0  0  0  0  0  0  0  0  0  0  0  0
    6.4837   11.8555   26.1838 C   0  0  0  0  0  0  0  0  0  0  0  0
    5.6855   12.5293   27.0226 F   0  0  0  0  0  0  0  0  0  0  0  0
    6.3557   10.4774   26.0962 C   0  0  0  0  0  0  0  0  0  0  0  0
    7.1969    9.7447   25.2573 C   0  0  0  0  0  0  0  0  0  0  0  0
    8.1605   10.4316   24.5137 C   0  0  0  0  0  0  0  0  0  0  0  0
  1  2  1  0
  2  3  1  0
  3  4  2  0
  4  5  1  0
  5  6  2  0
  5  7  1  0
  8  7  1  6
  8  9  1  0
 10  9  1  6
 10 11  1  0
 11 12  1  0
 12 13  1  0
 13 14  1  0
  4 15  1  0
 15 16  2  0
 16 17  1  0
 17 18  1  0
 17 19  2  0
 19 20  1  0
 20 21  2  0
 21  2  1  0
 10  8  1  0
 21 15  1  0
 14 10  1  0
M  END
>  <alias>  (173) 
None

>  <rmsd(smina/fragmenstein)>  (173) 
0.679

>  <smiles>  (173) 
Cn1nc(C(=O)N[C@H]2C[C@]23CCOC3)c2cc(F)ccc21

>  <gnina_score>  (173) 
5.63

>  <inspiration_score>  (173) 
None

>  <energy_score>  (173) 
-4.947427

>  <distance_score>  (173) 
0.449368

>  <gnina_score_min>  (173) 
5.578

>  <inchikey>  (173) 
BYCPSBCBAXBYLW-WFASDCNBSA-N

>  <exports>  (173) 
['/opt/xchem-fragalysis-2/maxwin/BulkDock/OUTPUTS/openbind_a71ev2a_c2_elabs_1LOUU54.sdf', '/opt/xchem-fragalysis-2/maxwin/BulkDock/OUTPUTS/openbind_a71ev2a_c2_elabs_1LSYIDY.sdf']

>  <name>  (173) 
P570196

>  <ref_pdb>  (173) 
A2339a

>  <subsites>  (173) 
None

>  <HIPPO Pose ID>  (173) 
570196

>  <ref_mols>  (173) 
A2339a

>  <HIPPO Compound ID>  (173) 
341109

>  <tags>  (173) 
openbind_a71ev2a_c2_elabs,syndirella_product,openbind_a71ev2a_c2_elabs_scored,BulkDock Fragalysis export,openbind_a71ev2a_c2_elabs_scored_top80percent,openbind_a71ev2a_c2_elabs_scored_top80percent_despaghettified,syndirella_placed

>  <smina_score_min>  (173) 
-6.459

$$$$
P570201
     RDKit          3D

 21 24  0  0  0  0  0  0  0  0999 V2000
    9.6019    9.1590   23.1322 C   0  0  0  0  0  0  0  0  0  0  0  0
    9.0772   10.4004   23.6613 N   0  0  0  0  0  0  0  0  0  0  0  0
    9.5939   11.5769   23.2365 N   0  0  0  0  0  0  0  0  0  0  0  0
    8.9499   12.5012   23.9735 C   0  0  0  0  0  0  0  0  0  0  0  0
    9.2285   13.9422   23.9057 C   0  0  0  0  0  0  0  0  0  0  0  0
    8.7691   14.6503   24.7092 O   0  0  0  0  0  0  0  0  0  0  0  0
   10.0494   14.2632   22.6488 N   0  0  0  0  0  0  0  0  0  0  0  0
   10.5456   15.4777   22.1768 C   0  0  2  0  0  0  0  0  0  0  0  0
   10.3552   15.9821   20.7760 C   0  0  2  0  0  0  0  0  0  0  0  0
   10.0329   15.1091   19.6281 C   0  0  0  0  0  0  0  0  0  0  0  0
   11.2895   14.8277   18.8236 C   0  0  0  0  0  0  0  0  0  0  0  0
   12.2263   14.0996   19.5964 O   0  0  0  0  0  0  0  0  0  0  0  0
   12.6176   14.7114   20.8192 C   0  0  0  0  0  0  0  0  0  0  0  0
   11.7262   15.7601   21.3380 C   0  0  2  0  0  0  0  0  0  0  0  0
    7.9641   11.9153   24.8067 C   0  0  0  0  0  0  0  0  0  0  0  0
    7.0060   12.4035   25.7148 C   0  0  0  0  0  0  0  0  0  0  0  0
    6.1925   11.4952   26.3776 C   0  0  0  0  0  0  0  0  0  0  0  0
    5.3030   11.9523   27.2676 F   0  0  0  0  0  0  0  0  0  0  0  0
    6.3066   10.1307   26.1584 C   0  0  0  0  0  0  0  0  0  0  0  0
    7.2610    9.6372   25.2632 C   0  0  0  0  0  0  0  0  0  0  0  0
    8.0748   10.5502   24.5903 C   0  0  0  0  0  0  0  0  0  0  0  0
  1  2  1  0
  2  3  1  0
  3  4  2  0
  4  5  1  0
  5  6  2  0
  5  7  1  0
  8  7  1  6
  8  9  1  0
  9 10  1  6
 10 11  1  0
 11 12  1  0
 12 13  1  0
 14 13  1  6
  4 15  1  0
 15 16  2  0
 16 17  1  0
 17 18  1  0
 17 19  2  0
 19 20  1  0
 20 21  2  0
 21  2  1  0
 14  8  1  0
 21 15  1  0
 14  9  1  0
M  END
>  <alias>  (174) 
None

>  <rmsd(smina/fragmenstein)>  (174) 
0.783

>  <smiles>  (174) 
Cn1nc(C(=O)N[C@@H]2[C@@H]3CCOC[C@@H]32)c2cc(F)ccc21

>  <gnina_score>  (174) 
5.656

>  <inspiration_score>  (174) 
None

>  <energy_score>  (174) 
-7.863271

>  <distance_score>  (174) 
0.682167

>  <gnina_score_min>  (174) 
5.653

>  <inchikey>  (174) 
HRQYVYVSAKVGPX-SUZMYJTESA-N

>  <exports>  (174) 
['/opt/xchem-fragalysis-2/maxwin/BulkDock/OUTPUTS/openbind_a71ev2a_c2_elabs_1LOUU54.sdf', '/opt/xchem-fragalysis-2/maxwin/BulkDock/OUTPUTS/openbind_a71ev2a_c2_elabs_1LSYIDY.sdf']

>  <name>  (174) 
P570201

>  <ref_pdb>  (174) 
A2339a

>  <subsites>  (174) 
None

>  <HIPPO Pose ID>  (174) 
570201

>  <ref_mols>  (174) 
A2339a

>  <HIPPO Compound ID>  (174) 
341107

>  <tags>  (174) 
openbind_a71ev2a_c2_elabs,syndirella_product,openbind_a71ev2a_c2_elabs_scored,BulkDock Fragalysis export,openbind_a71ev2a_c2_elabs_scored_top80percent,openbind_a71ev2a_c2_elabs_scored_top80percent_despaghettified,syndirella_placed

>  <smina_score_min>  (174) 
-7.451

$$$$
P570204
     RDKit          3D

 21 24  0  0  0  0  0  0  0  0999 V2000
    9.1521    8.7536   23.5517 C   0  0  0  0  0  0  0  0  0  0  0  0
    8.7458   10.0775   23.9596 N   0  0  0  0  0  0  0  0  0  0  0  0
    9.4132   11.1252   23.4547 N   0  0  0  0  0  0  0  0  0  0  0  0
    8.8872   12.1903   24.0893 C   0  0  0  0  0  0  0  0  0  0  0  0
    9.3802   13.5335   23.8114 C   0  0  0  0  0  0  0  0  0  0  0  0
    8.9636   14.4869   24.3346 O   0  0  0  0  0  0  0  0  0  0  0  0
   10.4072   13.3870   22.6858 N   0  0  0  0  0  0  0  0  0  0  0  0
   11.0568   14.3576   21.9154 C   0  0  0  0  0  0  0  0  0  0  0  0
   10.3694   14.5476   20.5998 C   0  0  0  0  0  0  0  0  0  0  0  0
    9.3326   15.6711   20.5388 C   0  0  0  0  0  0  0  0  0  0  0  0
    9.8897   16.0347   19.1712 C   0  0  0  0  0  0  0  0  0  0  0  0
   11.1072   15.1603   19.4106 C   0  0  0  0  0  0  0  0  0  0  0  0
   12.5173   14.5679   22.1522 C   0  0  0  0  0  0  0  0  0  0  0  0
   11.5435   15.6027   22.5905 C   0  0  0  0  0  0  0  0  0  0  0  0
    7.8475   11.8270   24.9628 C   0  0  0  0  0  0  0  0  0  0  0  0
    6.9761   12.5208   25.8194 C   0  0  0  0  0  0  0  0  0  0  0  0
    6.0622   11.7876   26.5637 C   0  0  0  0  0  0  0  0  0  0  0  0
    5.2568   12.4275   27.4190 F   0  0  0  0  0  0  0  0  0  0  0  0
    5.9833   10.4086   26.4590 C   0  0  0  0  0  0  0  0  0  0  0  0
    6.8324    9.7182   25.5931 C   0  0  0  0  0  0  0  0  0  0  0  0
    7.7719   10.4420   24.8596 C   0  0  0  0  0  0  0  0  0  0  0  0
  1  2  1  0
  2  3  1  0
  3  4  2  0
  4  5  1  0
  5  6  2  0
  5  7  1  0
  7  8  1  0
  8  9  1  0
  9 10  1  0
 10 11  1  0
 11 12  1  0
  8 13  1  0
 13 14  1  0
  4 15  1  0
 15 16  2  0
 16 17  1  0
 17 18  1  0
 17 19  2  0
 19 20  1  0
 20 21  2  0
 21  2  1  0
 14  8  1  0
 21 15  1  0
 12  9  1  0
M  END
>  <alias>  (175) 
None

>  <rmsd(smina/fragmenstein)>  (175) 
0.684

>  <smiles>  (175) 
Cn1nc(C(=O)NC2(C3CCC3)CC2)c2cc(F)ccc21

>  <gnina_score>  (175) 
5.771

>  <inspiration_score>  (175) 
None

>  <energy_score>  (175) 
-1.686713

>  <distance_score>  (175) 
0.873215

>  <gnina_score_min>  (175) 
5.88

>  <inchikey>  (175) 
ROSBJWKWQQSMLA-UHFFFAOYSA-N

>  <exports>  (175) 
['/opt/xchem-fragalysis-2/maxwin/BulkDock/OUTPUTS/openbind_a71ev2a_c2_elabs_1LOUU54.sdf', '/opt/xchem-fragalysis-2/maxwin/BulkDock/OUTPUTS/openbind_a71ev2a_c2_elabs_1LSYIDY.sdf']

>  <name>  (175) 
P570204

>  <ref_pdb>  (175) 
A2339a

>  <subsites>  (175) 
None

>  <HIPPO Pose ID>  (175) 
570204

>  <ref_mols>  (175) 
A2339a

>  <HIPPO Compound ID>  (175) 
411125

>  <tags>  (175) 
openbind_a71ev2a_c2_elabs,syndirella_product,openbind_a71ev2a_c2_elabs_scored,BulkDock Fragalysis export,openbind_a71ev2a_c2_elabs_scored_top80percent,openbind_a71ev2a_c2_elabs_scored_top80percent_despaghettified,syndirella_placed

>  <smina_score_min>  (175) 
-7.055

$$$$
P570205
     RDKit          3D

 21 23  0  0  0  0  0  0  0  0999 V2000
    9.0508    8.6912   23.5293 C   0  0  0  0  0  0  0  0  0  0  0  0
    8.7222   10.0382   23.9298 N   0  0  0  0  0  0  0  0  0  0  0  0
    9.4849   11.0405   23.4690 N   0  0  0  0  0  0  0  0  0  0  0  0
    9.1216   12.0969   24.2216 C   0  0  0  0  0  0  0  0  0  0  0  0
    9.9582   13.2968   24.2333 C   0  0  0  0  0  0  0  0  0  0  0  0
    9.7290   14.2309   24.8862 O   0  0  0  0  0  0  0  0  0  0  0  0
   11.0717   13.0472   23.2158 N   0  0  0  0  0  0  0  0  0  0  0  0
   12.1944   13.8524   22.8514 C   0  0  0  0  0  0  0  0  0  0  0  0
   11.8361   14.9639   21.8703 C   0  0  0  0  0  0  0  0  0  0  0  0
   12.5618   15.8360   21.5985 O   0  0  0  0  0  0  0  0  0  0  0  0
   10.3930   14.6686   21.3838 N   0  0  0  0  0  0  0  0  0  0  0  0
    9.5433   15.4126   20.5646 C   0  0  0  0  0  0  0  0  0  0  0  0
   10.0844   15.9454   19.2828 C   0  0  0  0  0  0  0  0  0  0  0  0
    9.7045   16.8879   20.3989 C   0  0  0  0  0  0  0  0  0  0  0  0
    7.9659   11.8278   24.9787 C   0  0  0  0  0  0  0  0  0  0  0  0
    7.1364   12.5673   25.8390 C   0  0  0  0  0  0  0  0  0  0  0  0
    6.1470   11.8910   26.5424 C   0  0  0  0  0  0  0  0  0  0  0  0
    5.3776   12.5697   27.4014 F   0  0  0  0  0  0  0  0  0  0  0  0
    5.9695   10.5230   26.4123 C   0  0  0  0  0  0  0  0  0  0  0  0
    6.7736    9.7862   25.5424 C   0  0  0  0  0  0  0  0  0  0  0  0
    7.7664   10.4576   24.8262 C   0  0  0  0  0  0  0  0  0  0  0  0
  1  2  1  0
  2  3  1  0
  3  4  2  0
  4  5  1  0
  5  6  2  0
  5  7  1  0
  7  8  1  0
  8  9  1  0
  9 10  2  0
  9 11  1  0
 11 12  1  0
 12 13  1  0
 13 14  1  0
  4 15  1  0
 15 16  2  0
 16 17  1  0
 17 18  1  0
 17 19  2  0
 19 20  1  0
 20 21  2  0
 21  2  1  0
 14 12  1  0
 21 15  1  0
M  END
>  <alias>  (176) 
None

>  <rmsd(smina/fragmenstein)>  (176) 
0.252

>  <smiles>  (176) 
Cn1nc(C(=O)NCC(=O)NC2CC2)c2cc(F)ccc21

>  <gnina_score>  (176) 
5.8

>  <inspiration_score>  (176) 
None

>  <energy_score>  (176) 
-12.124306

>  <distance_score>  (176) 
0.959911

>  <gnina_score_min>  (176) 
5.73

>  <inchikey>  (176) 
YTVSMSJRNXSYEJ-UHFFFAOYSA-N

>  <exports>  (176) 
['/opt/xchem-fragalysis-2/maxwin/BulkDock/OUTPUTS/openbind_a71ev2a_c2_elabs_1LOUU54.sdf', '/opt/xchem-fragalysis-2/maxwin/BulkDock/OUTPUTS/openbind_a71ev2a_c2_elabs_1LSYIDY.sdf']

>  <name>  (176) 
P570205

>  <ref_pdb>  (176) 
A2339a

>  <subsites>  (176) 
None

>  <HIPPO Pose ID>  (176) 
570205

>  <ref_mols>  (176) 
A2339a

>  <HIPPO Compound ID>  (176) 
411128

>  <tags>  (176) 
openbind_a71ev2a_c2_elabs,syndirella_product,openbind_a71ev2a_c2_elabs_scored,BulkDock Fragalysis export,openbind_a71ev2a_c2_elabs_scored_top80percent,openbind_a71ev2a_c2_elabs_scored_top80percent_despaghettified,syndirella_placed

>  <smina_score_min>  (176) 
-7.52

$$$$
P570207
     RDKit          3D

 21 24  0  0  0  0  0  0  0  0999 V2000
    9.5385    9.0549   23.1332 C   0  0  0  0  0  0  0  0  0  0  0  0
    9.0947   10.3294   23.6568 N   0  0  0  0  0  0  0  0  0  0  0  0
    9.7104   11.4564   23.2433 N   0  0  0  0  0  0  0  0  0  0  0  0
    9.1282   12.4371   23.9581 C   0  0  0  0  0  0  0  0  0  0  0  0
    9.5769   13.8350   23.8748 C   0  0  0  0  0  0  0  0  0  0  0  0
    9.1568   14.6392   24.6053 O   0  0  0  0  0  0  0  0  0  0  0  0
   10.5724   13.9678   22.7150 N   0  0  0  0  0  0  0  0  0  0  0  0
   11.1783   15.1072   22.1572 C   0  0  1  0  0  0  0  0  0  0  0  0
   12.0594   15.1575   20.9333 C   0  0  0  0  0  0  0  0  0  0  0  0
   12.4548   13.9928   20.3225 F   0  0  0  0  0  0  0  0  0  0  0  0
   13.1516   15.9825   21.0038 F   0  0  0  0  0  0  0  0  0  0  0  0
   10.6960   15.6250   20.8688 C   0  0  0  0  0  0  0  0  0  0  0  0
    9.8105   16.7337   20.5268 C   0  0  0  0  0  0  0  0  0  0  0  0
    9.5448   15.3162   20.0284 C   0  0  0  0  0  0  0  0  0  0  0  0
    8.0774   11.9388   24.7689 C   0  0  0  0  0  0  0  0  0  0  0  0
    7.1392   12.5021   25.6545 C   0  0  0  0  0  0  0  0  0  0  0  0
    6.2691   11.6539   26.3311 C   0  0  0  0  0  0  0  0  0  0  0  0
    5.4004   12.1750   27.2068 F   0  0  0  0  0  0  0  0  0  0  0  0
    6.3073   10.2791   26.1474 C   0  0  0  0  0  0  0  0  0  0  0  0
    7.2313    9.7119   25.2665 C   0  0  0  0  0  0  0  0  0  0  0  0
    8.1007   10.5619   24.5784 C   0  0  0  0  0  0  0  0  0  0  0  0
  1  2  1  0
  2  3  1  0
  3  4  2  0
  4  5  1  0
  5  6  2  0
  5  7  1  0
  8  7  1  6
  8  9  1  0
  9 10  1  0
  9 11  1  0
  9 12  1  0
 12 13  1  0
 13 14  1  0
  4 15  1  0
 15 16  2  0
 16 17  1  0
 17 18  1  0
 17 19  2  0
 19 20  1  0
 20 21  2  0
 21  2  1  0
 12  8  1  0
 21 15  1  0
 14 12  1  0
M  END
>  <alias>  (177) 
None

>  <rmsd(smina/fragmenstein)>  (177) 
0.262

>  <smiles>  (177) 
Cn1nc(C(=O)N[C@H]2C(F)(F)C23CC3)c2cc(F)ccc21

>  <gnina_score>  (177) 
5.732

>  <inspiration_score>  (177) 
None

>  <energy_score>  (177) 
-34.117941

>  <distance_score>  (177) 
0.435522

>  <gnina_score_min>  (177) 
5.662

>  <inchikey>  (177) 
HPEJHKBQDOBQSS-GFCCVEGCSA-N

>  <exports>  (177) 
['/opt/xchem-fragalysis-2/maxwin/BulkDock/OUTPUTS/openbind_a71ev2a_c2_elabs_1LOUU54.sdf', '/opt/xchem-fragalysis-2/maxwin/BulkDock/OUTPUTS/openbind_a71ev2a_c2_elabs_1LSYIDY.sdf']

>  <name>  (177) 
P570207

>  <ref_pdb>  (177) 
A2339a

>  <subsites>  (177) 
None

>  <HIPPO Pose ID>  (177) 
570207

>  <ref_mols>  (177) 
A2339a

>  <HIPPO Compound ID>  (177) 
411131

>  <tags>  (177) 
openbind_a71ev2a_c2_elabs,syndirella_product,openbind_a71ev2a_c2_elabs_scored,BulkDock Fragalysis export,openbind_a71ev2a_c2_elabs_scored_top80percent,openbind_a71ev2a_c2_elabs_scored_top80percent_despaghettified,syndirella_placed

>  <smina_score_min>  (177) 
-8.053

$$$$
P570209
     RDKit          3D

 21 24  0  0  0  0  0  0  0  0999 V2000
    9.5444    9.0400   23.1228 C   0  0  0  0  0  0  0  0  0  0  0  0
    9.1204   10.3186   23.6521 N   0  0  0  0  0  0  0  0  0  0  0  0
    9.7673   11.4348   23.2581 N   0  0  0  0  0  0  0  0  0  0  0  0
    9.1907   12.4229   23.9679 C   0  0  0  0  0  0  0  0  0  0  0  0
    9.6711   13.8114   23.9038 C   0  0  0  0  0  0  0  0  0  0  0  0
    9.3215   14.6006   24.6875 O   0  0  0  0  0  0  0  0  0  0  0  0
   10.6143   13.9539   22.6990 N   0  0  0  0  0  0  0  0  0  0  0  0
   11.2369   15.0869   22.1597 C   0  0  1  0  0  0  0  0  0  0  0  0
   12.0717   15.1338   20.8921 C   0  0  0  0  0  0  0  0  0  0  0  0
   10.7084   15.6409   20.9140 C   0  0  2  0  0  0  0  0  0  0  0  0
    9.8146   16.7774   20.6741 C   0  0  0  0  0  0  0  0  0  0  0  0
    9.5374   15.4151   20.1061 C   0  0  0  0  0  0  0  0  0  0  0  0
    8.4759   14.6644   20.5584 F   0  0  0  0  0  0  0  0  0  0  0  0
    9.6002   15.2960   18.7422 F   0  0  0  0  0  0  0  0  0  0  0  0
    8.1202   11.9389   24.7628 C   0  0  0  0  0  0  0  0  0  0  0  0
    7.1803   12.5135   25.6398 C   0  0  0  0  0  0  0  0  0  0  0  0
    6.2951   11.6753   26.3099 C   0  0  0  0  0  0  0  0  0  0  0  0
    5.4267   12.2054   27.1808 F   0  0  0  0  0  0  0  0  0  0  0  0
    6.3191   10.2999   26.1273 C   0  0  0  0  0  0  0  0  0  0  0  0
    7.2409    9.7221   25.2512 C   0  0  0  0  0  0  0  0  0  0  0  0
    8.1248   10.5623   24.5688 C   0  0  0  0  0  0  0  0  0  0  0  0
  1  2  1  0
  2  3  1  0
  3  4  2  0
  4  5  1  0
  5  6  2  0
  5  7  1  0
  8  7  1  6
  8  9  1  0
 10  9  1  6
 10 11  1  0
 11 12  1  0
 12 13  1  0
 12 14  1  0
  4 15  1  0
 15 16  2  0
 16 17  1  0
 17 18  1  0
 17 19  2  0
 19 20  1  0
 20 21  2  0
 21  2  1  0
 10  8  1  0
 21 15  1  0
 12 10  1  0
M  END
>  <alias>  (178) 
None

>  <rmsd(smina/fragmenstein)>  (178) 
0.359

>  <smiles>  (178) 
Cn1nc(C(=O)N[C@H]2C[C@]23CC3(F)F)c2cc(F)ccc21

>  <gnina_score>  (178) 
5.714

>  <inspiration_score>  (178) 
None

>  <energy_score>  (178) 
-9.359489

>  <distance_score>  (178) 
0.423339

>  <gnina_score_min>  (178) 
5.682

>  <inchikey>  (178) 
NQRLTMRJPOEUDB-GWCFXTLKSA-N

>  <exports>  (178) 
['/opt/xchem-fragalysis-2/maxwin/BulkDock/OUTPUTS/openbind_a71ev2a_c2_elabs_1LOUU54.sdf', '/opt/xchem-fragalysis-2/maxwin/BulkDock/OUTPUTS/openbind_a71ev2a_c2_elabs_1LSYIDY.sdf']

>  <name>  (178) 
P570209

>  <ref_pdb>  (178) 
A2339a

>  <subsites>  (178) 
None

>  <HIPPO Pose ID>  (178) 
570209

>  <ref_mols>  (178) 
A2339a

>  <HIPPO Compound ID>  (178) 
411132

>  <tags>  (178) 
openbind_a71ev2a_c2_elabs,syndirella_product,openbind_a71ev2a_c2_elabs_scored,BulkDock Fragalysis export,openbind_a71ev2a_c2_elabs_scored_top80percent,openbind_a71ev2a_c2_elabs_scored_top80percent_despaghettified,syndirella_placed

>  <smina_score_min>  (178) 
-8.419

$$$$
P570212
     RDKit          3D

 21 23  0  0  0  0  0  0  0  0999 V2000
    9.5925    8.7113   23.0607 C   0  0  0  0  0  0  0  0  0  0  0  0
    9.2406   10.0382   23.5039 N   0  0  0  0  0  0  0  0  0  0  0  0
    9.8792   11.0863   22.9508 N   0  0  0  0  0  0  0  0  0  0  0  0
    9.3851   12.1490   23.5956 C   0  0  0  0  0  0  0  0  0  0  0  0
    9.8180   13.5136   23.3112 C   0  0  0  0  0  0  0  0  0  0  0  0
    9.6149   14.3417   24.1121 O   0  0  0  0  0  0  0  0  0  0  0  0
   10.4100   13.6221   21.8788 N   0  0  0  0  0  0  0  0  0  0  0  0
   10.7813   14.7736   21.1103 C   0  0  0  0  0  0  0  0  0  0  0  0
   10.1640   16.0499   21.6248 C   0  0  0  0  0  0  0  0  0  0  0  0
    8.6484   16.0290   21.6302 C   0  0  0  0  0  0  0  0  0  0  0  0
   10.5605   17.1091   20.8801 F   0  0  0  0  0  0  0  0  0  0  0  0
   10.6880   16.2073   22.8603 F   0  0  0  0  0  0  0  0  0  0  0  0
   11.1195   14.7719   19.6386 C   0  0  0  0  0  0  0  0  0  0  0  0
   12.2177   14.8142   20.6501 C   0  0  0  0  0  0  0  0  0  0  0  0
    8.3490   11.7847   24.5015 C   0  0  0  0  0  0  0  0  0  0  0  0
    7.4579   12.4720   25.3524 C   0  0  0  0  0  0  0  0  0  0  0  0
    6.5443   11.7350   26.1031 C   0  0  0  0  0  0  0  0  0  0  0  0
    5.7193   12.3701   26.9465 F   0  0  0  0  0  0  0  0  0  0  0  0
    6.4926   10.3520   26.0223 C   0  0  0  0  0  0  0  0  0  0  0  0
    7.3704    9.6642   25.1819 C   0  0  0  0  0  0  0  0  0  0  0  0
    8.2832   10.3999   24.4215 C   0  0  0  0  0  0  0  0  0  0  0  0
  1  2  1  0
  2  3  1  0
  3  4  2  0
  4  5  1  0
  5  6  2  0
  5  7  1  0
  7  8  1  0
  8  9  1  0
  9 10  1  0
  9 11  1  0
  9 12  1  0
  8 13  1  0
 13 14  1  0
  4 15  1  0
 15 16  2  0
 16 17  1  0
 17 18  1  0
 17 19  2  0
 19 20  1  0
 20 21  2  0
 21  2  1  0
 14  8  1  0
 21 15  1  0
M  END
>  <alias>  (179) 
None

>  <rmsd(smina/fragmenstein)>  (179) 
1.556

>  <smiles>  (179) 
Cn1nc(C(=O)NC2(C(C)(F)F)CC2)c2cc(F)ccc21

>  <gnina_score>  (179) 
5.807

>  <inspiration_score>  (179) 
None

>  <energy_score>  (179) 
-29.776308

>  <distance_score>  (179) 
0.344575

>  <gnina_score_min>  (179) 
5.66

>  <inchikey>  (179) 
FGFQXUHULKUUCZ-UHFFFAOYSA-N

>  <exports>  (179) 
['/opt/xchem-fragalysis-2/maxwin/BulkDock/OUTPUTS/openbind_a71ev2a_c2_elabs_1LOUU54.sdf', '/opt/xchem-fragalysis-2/maxwin/BulkDock/OUTPUTS/openbind_a71ev2a_c2_elabs_1LSYIDY.sdf']

>  <name>  (179) 
P570212

>  <ref_pdb>  (179) 
A2339a

>  <subsites>  (179) 
None

>  <HIPPO Pose ID>  (179) 
570212

>  <ref_mols>  (179) 
A2339a

>  <HIPPO Compound ID>  (179) 
411133

>  <tags>  (179) 
openbind_a71ev2a_c2_elabs,syndirella_product,openbind_a71ev2a_c2_elabs_scored,BulkDock Fragalysis export,openbind_a71ev2a_c2_elabs_scored_top80percent,openbind_a71ev2a_c2_elabs_scored_top80percent_despaghettified,syndirella_placed

>  <smina_score_min>  (179) 
-7.765

$$$$
P570217
     RDKit          3D

 21 23  0  0  0  0  0  0  0  0999 V2000
    9.5208    9.1605   23.1634 C   0  0  0  0  0  0  0  0  0  0  0  0
    9.0245   10.4286   23.6580 N   0  0  0  0  0  0  0  0  0  0  0  0
    9.5316   11.5749   23.1591 N   0  0  0  0  0  0  0  0  0  0  0  0
    8.9163   12.5499   23.8550 C   0  0  0  0  0  0  0  0  0  0  0  0
    9.2053   13.9766   23.6240 C   0  0  0  0  0  0  0  0  0  0  0  0
    8.9485   14.7842   24.4262 O   0  0  0  0  0  0  0  0  0  0  0  0
    9.8573   14.1197   22.2372 N   0  0  0  0  0  0  0  0  0  0  0  0
   10.2388   15.2746   21.5161 C   0  0  0  0  0  0  0  0  0  0  0  0
   11.5673   15.8172   21.9169 C   0  0  0  0  0  0  0  0  0  0  0  0
   12.6919   14.8938   21.5402 C   0  0  0  0  0  0  0  0  0  0  0  0
   12.5774   14.4685   20.2622 F   0  0  0  0  0  0  0  0  0  0  0  0
   12.6660   13.8042   22.3508 F   0  0  0  0  0  0  0  0  0  0  0  0
    9.8407   15.4220   20.0794 C   0  0  0  0  0  0  0  0  0  0  0  0
    9.1980   16.2851   21.1154 C   0  0  0  0  0  0  0  0  0  0  0  0
    7.9694   12.0171   24.7645 C   0  0  0  0  0  0  0  0  0  0  0  0
    7.0457   12.5578   25.6770 C   0  0  0  0  0  0  0  0  0  0  0  0
    6.2301   11.6861   26.3908 C   0  0  0  0  0  0  0  0  0  0  0  0
    5.3668   12.1877   27.2827 F   0  0  0  0  0  0  0  0  0  0  0  0
    6.3052   10.3110   26.2166 C   0  0  0  0  0  0  0  0  0  0  0  0
    7.2260    9.7631   25.3202 C   0  0  0  0  0  0  0  0  0  0  0  0
    8.0479   10.6371   24.6033 C   0  0  0  0  0  0  0  0  0  0  0  0
  1  2  1  0
  2  3  1  0
  3  4  2  0
  4  5  1  0
  5  6  2  0
  5  7  1  0
  7  8  1  0
  8  9  1  0
  9 10  1  0
 10 11  1  0
 10 12  1  0
  8 13  1  0
 13 14  1  0
  4 15  1  0
 15 16  2  0
 16 17  1  0
 17 18  1  0
 17 19  2  0
 19 20  1  0
 20 21  2  0
 21  2  1  0
 14  8  1  0
 21 15  1  0
M  END
>  <alias>  (180) 
None

>  <rmsd(smina/fragmenstein)>  (180) 
0.37

>  <smiles>  (180) 
Cn1nc(C(=O)NC2(CC(F)F)CC2)c2cc(F)ccc21

>  <gnina_score>  (180) 
5.719

>  <inspiration_score>  (180) 
None

>  <energy_score>  (180) 
-6.879943

>  <distance_score>  (180) 
0.916278

>  <gnina_score_min>  (180) 
5.76

>  <inchikey>  (180) 
KCRHYYBDRQRGRI-UHFFFAOYSA-N

>  <exports>  (180) 
['/opt/xchem-fragalysis-2/maxwin/BulkDock/OUTPUTS/openbind_a71ev2a_c2_elabs_1LOUU54.sdf', '/opt/xchem-fragalysis-2/maxwin/BulkDock/OUTPUTS/openbind_a71ev2a_c2_elabs_1LSYIDY.sdf']

>  <name>  (180) 
P570217

>  <ref_pdb>  (180) 
A2339a

>  <subsites>  (180) 
None

>  <HIPPO Pose ID>  (180) 
570217

>  <ref_mols>  (180) 
A2339a

>  <HIPPO Compound ID>  (180) 
411136

>  <tags>  (180) 
openbind_a71ev2a_c2_elabs,syndirella_product,openbind_a71ev2a_c2_elabs_scored,BulkDock Fragalysis export,openbind_a71ev2a_c2_elabs_scored_top80percent,openbind_a71ev2a_c2_elabs_scored_top80percent_despaghettified,syndirella_placed

>  <smina_score_min>  (180) 
-6.886

$$$$
P570222
     RDKit          3D

 21 23  0  0  0  0  0  0  0  0999 V2000
    9.5683    8.8798   23.1821 C   0  0  0  0  0  0  0  0  0  0  0  0
    9.1382   10.2051   23.5670 N   0  0  0  0  0  0  0  0  0  0  0  0
    9.7255   11.2640   22.9813 N   0  0  0  0  0  0  0  0  0  0  0  0
    9.1329   12.3343   23.5380 C   0  0  0  0  0  0  0  0  0  0  0  0
    9.5007   13.7039   23.1403 C   0  0  0  0  0  0  0  0  0  0  0  0
    9.0359   14.6243   23.6892 O   0  0  0  0  0  0  0  0  0  0  0  0
   10.5342   13.6387   21.9905 N   0  0  0  0  0  0  0  0  0  0  0  0
   11.2693   14.6717   21.3521 C   0  0  0  0  0  0  0  0  0  0  0  0
   11.0126   14.9214   19.8915 C   0  0  0  0  0  0  0  0  0  0  0  0
    9.6462   15.5239   19.6722 C   0  0  0  0  0  0  0  0  0  0  0  0
    9.5528   16.9184   20.1191 C   0  0  0  0  0  0  0  0  0  0  0  0
    9.4090   18.0379   20.3827 N   0  0  0  0  0  0  0  0  0  0  0  0
   12.6673   14.9031   21.8393 C   0  0  0  0  0  0  0  0  0  0  0  0
   11.6004   15.8829   22.1654 C   0  0  0  0  0  0  0  0  0  0  0  0
    8.1593   11.9453   24.4999 C   0  0  0  0  0  0  0  0  0  0  0  0
    7.2676   12.6128   25.3632 C   0  0  0  0  0  0  0  0  0  0  0  0
    6.4169   11.8531   26.1644 C   0  0  0  0  0  0  0  0  0  0  0  0
    5.5885   12.4717   27.0163 F   0  0  0  0  0  0  0  0  0  0  0  0
    6.4183   10.4666   26.1152 C   0  0  0  0  0  0  0  0  0  0  0  0
    7.3013    9.7929   25.2696 C   0  0  0  0  0  0  0  0  0  0  0  0
    8.1698   10.5525   24.4782 C   0  0  0  0  0  0  0  0  0  0  0  0
  1  2  1  0
  2  3  1  0
  3  4  2  0
  4  5  1  0
  5  6  2  0
  5  7  1  0
  7  8  1  0
  8  9  1  0
  9 10  1  0
 10 11  1  0
 11 12  3  0
  8 13  1  0
 13 14  1  0
  4 15  1  0
 15 16  2  0
 16 17  1  0
 17 18  1  0
 17 19  2  0
 19 20  1  0
 20 21  2  0
 21  2  1  0
 14  8  1  0
 21 15  1  0
M  END
>  <alias>  (181) 
None

>  <rmsd(smina/fragmenstein)>  (181) 
0.855

>  <smiles>  (181) 
Cn1nc(C(=O)NC2(CCC#N)CC2)c2cc(F)ccc21

>  <gnina_score>  (181) 
6.004

>  <inspiration_score>  (181) 
None

>  <energy_score>  (181) 
-31.491795

>  <distance_score>  (181) 
0.651685

>  <gnina_score_min>  (181) 
5.991

>  <inchikey>  (181) 
QSNRFNUXMDLAOP-UHFFFAOYSA-N

>  <exports>  (181) 
['/opt/xchem-fragalysis-2/maxwin/BulkDock/OUTPUTS/openbind_a71ev2a_c2_elabs_1LOUU54.sdf', '/opt/xchem-fragalysis-2/maxwin/BulkDock/OUTPUTS/openbind_a71ev2a_c2_elabs_1LSYIDY.sdf']

>  <name>  (181) 
P570222

>  <ref_pdb>  (181) 
A2339a

>  <subsites>  (181) 
None

>  <HIPPO Pose ID>  (181) 
570222

>  <ref_mols>  (181) 
A2339a

>  <HIPPO Compound ID>  (181) 
411140

>  <tags>  (181) 
openbind_a71ev2a_c2_elabs,syndirella_product,openbind_a71ev2a_c2_elabs_scored,BulkDock Fragalysis export,openbind_a71ev2a_c2_elabs_scored_top80percent,openbind_a71ev2a_c2_elabs_scored_top80percent_despaghettified,syndirella_placed

>  <smina_score_min>  (181) 
-6.721

$$$$
P570223
     RDKit          3D

 21 23  0  0  0  0  0  0  0  0999 V2000
    9.0769    9.0741   23.6418 C   0  0  0  0  0  0  0  0  0  0  0  0
    8.4773   10.3325   24.0315 N   0  0  0  0  0  0  0  0  0  0  0  0
    8.8960   11.4570   23.4285 N   0  0  0  0  0  0  0  0  0  0  0  0
    8.2307   12.4497   24.0671 C   0  0  0  0  0  0  0  0  0  0  0  0
    8.5331   13.8463   23.7547 C   0  0  0  0  0  0  0  0  0  0  0  0
    8.2641   14.7520   24.4343 O   0  0  0  0  0  0  0  0  0  0  0  0
    9.3296   13.7865   22.4520 N   0  0  0  0  0  0  0  0  0  0  0  0
   10.0338   14.7881   21.7663 C   0  0  0  0  0  0  0  0  0  0  0  0
   11.4974   14.6945   22.2126 C   0  0  0  0  0  0  0  0  0  0  0  0
   12.3856   15.7628   21.6071 C   0  0  0  0  0  0  0  0  0  0  0  0
   12.0832   13.3535   21.7968 C   0  0  0  0  0  0  0  0  0  0  0  0
   11.5668   14.6776   23.7568 C   0  0  0  0  0  0  0  0  0  0  0  0
    9.3966   16.0835   21.3370 C   0  0  0  0  0  0  0  0  0  0  0  0
    9.6997   15.0335   20.3198 C   0  0  0  0  0  0  0  0  0  0  0  0
    7.3981   11.9535   25.0744 C   0  0  0  0  0  0  0  0  0  0  0  0
    6.5513   12.5340   26.0264 C   0  0  0  0  0  0  0  0  0  0  0  0
    5.8065   11.6884   26.8320 C   0  0  0  0  0  0  0  0  0  0  0  0
    5.0080   12.2245   27.7596 F   0  0  0  0  0  0  0  0  0  0  0  0
    5.8692   10.3098   26.6983 C   0  0  0  0  0  0  0  0  0  0  0  0
    6.7246    9.7302   25.7604 C   0  0  0  0  0  0  0  0  0  0  0  0
    7.5146   10.5696   24.9809 C   0  0  0  0  0  0  0  0  0  0  0  0
  1  2  1  0
  2  3  1  0
  3  4  2  0
  4  5  1  0
  5  6  2  0
  5  7  1  0
  7  8  1  0
  8  9  1  0
  9 10  1  0
  9 11  1  0
  9 12  1  0
  8 13  1  0
 13 14  1  0
  4 15  1  0
 15 16  2  0
 16 17  1  0
 17 18  1  0
 17 19  2  0
 19 20  1  0
 20 21  2  0
 21  2  1  0
 14  8  1  0
 21 15  1  0
M  END
>  <alias>  (182) 
None

>  <rmsd(smina/fragmenstein)>  (182) 
0.373

>  <smiles>  (182) 
Cn1nc(C(=O)NC2(C(C)(C)C)CC2)c2cc(F)ccc21

>  <gnina_score>  (182) 
5.722

>  <inspiration_score>  (182) 
None

>  <energy_score>  (182) 
-14.909559

>  <distance_score>  (182) 
1.212874

>  <gnina_score_min>  (182) 
5.61

>  <inchikey>  (182) 
GRJNTTXDEXJMMO-UHFFFAOYSA-N

>  <exports>  (182) 
['/opt/xchem-fragalysis-2/maxwin/BulkDock/OUTPUTS/openbind_a71ev2a_c2_elabs_1LOUU54.sdf', '/opt/xchem-fragalysis-2/maxwin/BulkDock/OUTPUTS/openbind_a71ev2a_c2_elabs_1LSYIDY.sdf']

>  <name>  (182) 
P570223

>  <ref_pdb>  (182) 
A2339a

>  <subsites>  (182) 
None

>  <HIPPO Pose ID>  (182) 
570223

>  <ref_mols>  (182) 
A2339a

>  <HIPPO Compound ID>  (182) 
411141

>  <tags>  (182) 
openbind_a71ev2a_c2_elabs,syndirella_product,openbind_a71ev2a_c2_elabs_scored,BulkDock Fragalysis export,openbind_a71ev2a_c2_elabs_scored_top80percent,openbind_a71ev2a_c2_elabs_scored_top80percent_despaghettified,syndirella_placed

>  <smina_score_min>  (182) 
-6.522

$$$$
P570225
     RDKit          3D

 21 23  0  0  0  0  0  0  0  0999 V2000
    9.5823    8.8296   23.2338 C   0  0  0  0  0  0  0  0  0  0  0  0
    9.1221   10.1492   23.5990 N   0  0  0  0  0  0  0  0  0  0  0  0
    9.6821   11.2132   22.9922 N   0  0  0  0  0  0  0  0  0  0  0  0
    9.0968   12.2731   23.5733 C   0  0  0  0  0  0  0  0  0  0  0  0
    9.4310   13.6505   23.1957 C   0  0  0  0  0  0  0  0  0  0  0  0
    9.0811   14.5357   23.8748 O   0  0  0  0  0  0  0  0  0  0  0  0
   10.2293   13.6586   21.8661 N   0  0  0  0  0  0  0  0  0  0  0  0
   10.8371   14.7389   21.1555 C   0  0  0  0  0  0  0  0  0  0  0  0
   10.4238   16.1020   21.6345 C   0  0  1  0  0  0  0  0  0  0  0  0
   11.5287   16.9787   21.5463 O   0  0  0  0  0  0  0  0  0  0  0  0
    9.2234   16.6444   20.8491 C   0  0  0  0  0  0  0  0  0  0  0  0
    8.9147   17.9936   21.1888 O   0  0  0  0  0  0  0  0  0  0  0  0
   12.2712   14.4798   20.7363 C   0  0  0  0  0  0  0  0  0  0  0  0
   11.2328   14.6891   19.6923 C   0  0  0  0  0  0  0  0  0  0  0  0
    8.1328   11.8769   24.5404 C   0  0  0  0  0  0  0  0  0  0  0  0
    7.2384   12.5389   25.4058 C   0  0  0  0  0  0  0  0  0  0  0  0
    6.3864   11.7752   26.1999 C   0  0  0  0  0  0  0  0  0  0  0  0
    5.5560   12.3892   27.0527 F   0  0  0  0  0  0  0  0  0  0  0  0
    6.3907   10.3900   26.1416 C   0  0  0  0  0  0  0  0  0  0  0  0
    7.2792    9.7246   25.2945 C   0  0  0  0  0  0  0  0  0  0  0  0
    8.1483   10.4868   24.5082 C   0  0  0  0  0  0  0  0  0  0  0  0
  1  2  1  0
  2  3  1  0
  3  4  2  0
  4  5  1  0
  5  6  2  0
  5  7  1  0
  7  8  1  0
  8  9  1  0
  9 10  1  6
  9 11  1  0
 11 12  1  0
  8 13  1  0
 13 14  1  0
  4 15  1  0
 15 16  2  0
 16 17  1  0
 17 18  1  0
 17 19  2  0
 19 20  1  0
 20 21  2  0
 21  2  1  0
 14  8  1  0
 21 15  1  0
M  END
>  <alias>  (183) 
None

>  <rmsd(smina/fragmenstein)>  (183) 
1.02

>  <smiles>  (183) 
Cn1nc(C(=O)NC2([C@@H](O)CO)CC2)c2cc(F)ccc21

>  <gnina_score>  (183) 
5.334

>  <inspiration_score>  (183) 
None

>  <energy_score>  (183) 
-9.316817

>  <distance_score>  (183) 
0.402572

>  <gnina_score_min>  (183) 
5.379

>  <inchikey>  (183) 
RCVWFKUGFFDALA-NSHDSACASA-N

>  <exports>  (183) 
['/opt/xchem-fragalysis-2/maxwin/BulkDock/OUTPUTS/openbind_a71ev2a_c2_elabs_1LOUU54.sdf', '/opt/xchem-fragalysis-2/maxwin/BulkDock/OUTPUTS/openbind_a71ev2a_c2_elabs_1LSYIDY.sdf']

>  <name>  (183) 
P570225

>  <ref_pdb>  (183) 
A2339a

>  <subsites>  (183) 
None

>  <HIPPO Pose ID>  (183) 
570225

>  <ref_mols>  (183) 
A2339a

>  <HIPPO Compound ID>  (183) 
411142

>  <tags>  (183) 
openbind_a71ev2a_c2_elabs,syndirella_product,openbind_a71ev2a_c2_elabs_scored,BulkDock Fragalysis export,openbind_a71ev2a_c2_elabs_scored_top80percent,openbind_a71ev2a_c2_elabs_scored_top80percent_despaghettified,syndirella_placed

>  <smina_score_min>  (183) 
-6.461

$$$$
P570229
     RDKit          3D

 21 23  0  0  0  0  0  0  0  0999 V2000
    9.5589    9.1741   23.1836 C   0  0  0  0  0  0  0  0  0  0  0  0
    9.1012   10.4339   23.7325 N   0  0  0  0  0  0  0  0  0  0  0  0
    9.7213   11.5775   23.3655 N   0  0  0  0  0  0  0  0  0  0  0  0
    9.1250   12.5336   24.1081 C   0  0  0  0  0  0  0  0  0  0  0  0
    9.5206   13.9539   24.0351 C   0  0  0  0  0  0  0  0  0  0  0  0
    9.1223   14.7370   24.8002 O   0  0  0  0  0  0  0  0  0  0  0  0
   10.3907   14.1378   22.7855 N   0  0  0  0  0  0  0  0  0  0  0  0
   10.8692   15.3105   22.1672 C   0  0  1  0  0  0  0  0  0  0  0  0
   11.6364   15.2923   20.8833 C   0  0  0  0  0  0  0  0  0  0  0  0
   10.1768   15.7231   20.8820 C   0  0  1  0  0  0  0  0  0  0  0  0
    9.1799   14.7729   20.3210 C   0  0  0  0  0  0  0  0  0  0  0  0
    9.7338   17.1370   20.6417 C   0  0  0  0  0  0  0  0  0  0  0  0
    9.6248   17.3188   19.3023 F   0  0  0  0  0  0  0  0  0  0  0  0
   10.6589   18.0182   21.0357 F   0  0  0  0  0  0  0  0  0  0  0  0
    8.0634   12.0009   24.8823 C   0  0  0  0  0  0  0  0  0  0  0  0
    7.1002   12.5328   25.7592 C   0  0  0  0  0  0  0  0  0  0  0  0
    6.2217   11.6598   26.3911 C   0  0  0  0  0  0  0  0  0  0  0  0
    5.3327   12.1517   27.2626 F   0  0  0  0  0  0  0  0  0  0  0  0
    6.2712   10.2911   26.1679 C   0  0  0  0  0  0  0  0  0  0  0  0
    7.2122    9.7548   25.2857 C   0  0  0  0  0  0  0  0  0  0  0  0
    8.0915   10.6314   24.6437 C   0  0  0  0  0  0  0  0  0  0  0  0
  1  2  1  0
  2  3  1  0
  3  4  2  0
  4  5  1  0
  5  6  2  0
  5  7  1  0
  8  7  1  6
  8  9  1  0
  9 10  1  0
 10 11  1  6
 10 12  1  0
 12 13  1  0
 12 14  1  0
  4 15  1  0
 15 16  2  0
 16 17  1  0
 17 18  1  0
 17 19  2  0
 19 20  1  0
 20 21  2  0
 21  2  1  0
 10  8  1  0
 21 15  1  0
M  END
>  <alias>  (184) 
None

>  <rmsd(smina/fragmenstein)>  (184) 
0.223

>  <smiles>  (184) 
Cn1nc(C(=O)N[C@H]2C[C@]2(C)C(F)F)c2cc(F)ccc21

>  <gnina_score>  (184) 
5.567

>  <inspiration_score>  (184) 
None

>  <energy_score>  (184) 
-29.315135

>  <distance_score>  (184) 
0.585463

>  <gnina_score_min>  (184) 
5.568

>  <inchikey>  (184) 
XXZLHENUZNJWNS-HZMBPMFUSA-N

>  <exports>  (184) 
['/opt/xchem-fragalysis-2/maxwin/BulkDock/OUTPUTS/openbind_a71ev2a_c2_elabs_1LOUU54.sdf', '/opt/xchem-fragalysis-2/maxwin/BulkDock/OUTPUTS/openbind_a71ev2a_c2_elabs_1LSYIDY.sdf']

>  <name>  (184) 
P570229

>  <ref_pdb>  (184) 
A2339a

>  <subsites>  (184) 
None

>  <HIPPO Pose ID>  (184) 
570229

>  <ref_mols>  (184) 
A2339a

>  <HIPPO Compound ID>  (184) 
411144

>  <tags>  (184) 
openbind_a71ev2a_c2_elabs,syndirella_product,openbind_a71ev2a_c2_elabs_scored,BulkDock Fragalysis export,openbind_a71ev2a_c2_elabs_scored_top80percent,openbind_a71ev2a_c2_elabs_scored_top80percent_despaghettified,syndirella_placed

>  <smina_score_min>  (184) 
-6.559

$$$$
P570236
     RDKit          3D

 21 23  0  0  0  0  0  0  0  0999 V2000
   12.5178   14.3839   21.1529 C   0  0  0  0  0  0  0  0  0  0  0  0
   12.3584   15.2192   20.0262 O   0  0  0  0  0  0  0  0  0  0  0  0
   11.3397   14.8059   19.1331 C   0  0  0  0  0  0  0  0  0  0  0  0
   10.0112   15.4520   19.4459 C   0  0  0  0  0  0  0  0  0  0  0  0
    9.5829   15.4241   20.8891 C   0  0  0  0  0  0  0  0  0  0  0  0
    9.3261   14.2181   21.6301 N   0  0  0  0  0  0  0  0  0  0  0  0
    8.7426   14.0151   23.0612 C   0  0  0  0  0  0  0  0  0  0  0  0
    8.3112   14.7941   23.8220 O   0  0  0  0  0  0  0  0  0  0  0  0
    8.7639   12.5933   23.4750 C   0  0  0  0  0  0  0  0  0  0  0  0
    9.5088   11.6421   22.8823 N   0  0  0  0  0  0  0  0  0  0  0  0
    9.1211   10.4891   23.4816 N   0  0  0  0  0  0  0  0  0  0  0  0
    9.6662    9.2222   23.0385 C   0  0  0  0  0  0  0  0  0  0  0  0
    8.1586   10.6693   24.4454 C   0  0  0  0  0  0  0  0  0  0  0  0
    7.4156    9.7688   25.2167 C   0  0  0  0  0  0  0  0  0  0  0  0
    6.4797   10.2892   26.1145 C   0  0  0  0  0  0  0  0  0  0  0  0
    6.3228   11.6615   26.2460 C   0  0  0  0  0  0  0  0  0  0  0  0
    5.4590   12.1407   27.1509 F   0  0  0  0  0  0  0  0  0  0  0  0
    7.0428   12.5538   25.4577 C   0  0  0  0  0  0  0  0  0  0  0  0
    7.9646   12.0424   24.5225 C   0  0  0  0  0  0  0  0  0  0  0  0
   10.3049   16.4225   21.7268 C   0  0  0  0  0  0  0  0  0  0  0  0
    8.8856   16.6805   21.3268 C   0  0  0  0  0  0  0  0  0  0  0  0
  1  2  1  0
  2  3  1  0
  3  4  1  0
  4  5  1  0
  5  6  1  0
  6  7  1  0
  7  8  2  0
  7  9  1  0
  9 10  2  0
 10 11  1  0
 11 12  1  0
 11 13  1  0
 13 14  2  0
 14 15  1  0
 15 16  2  0
 16 17  1  0
 16 18  1  0
 18 19  2  0
  5 20  1  0
 20 21  1  0
 21  5  1  0
 19  9  1  0
 19 13  1  0
M  END
>  <alias>  (185) 
None

>  <rmsd(smina/fragmenstein)>  (185) 
1.632

>  <smiles>  (185) 
COCCC1(NC(=O)c2nn(C)c3ccc(F)cc23)CC1

>  <gnina_score>  (185) 
5.577

>  <inspiration_score>  (185) 
None

>  <energy_score>  (185) 
-22.707899

>  <distance_score>  (185) 
1.176825

>  <gnina_score_min>  (185) 
5.674

>  <inchikey>  (185) 
GBBHTCISWDHBHD-UHFFFAOYSA-N

>  <exports>  (185) 
['/opt/xchem-fragalysis-2/maxwin/BulkDock/OUTPUTS/openbind_a71ev2a_c2_elabs_1LOUU54.sdf', '/opt/xchem-fragalysis-2/maxwin/BulkDock/OUTPUTS/openbind_a71ev2a_c2_elabs_1LSYIDY.sdf']

>  <name>  (185) 
P570236

>  <ref_pdb>  (185) 
A2339a

>  <subsites>  (185) 
None

>  <HIPPO Pose ID>  (185) 
570236

>  <ref_mols>  (185) 
A2339a

>  <HIPPO Compound ID>  (185) 
411147

>  <tags>  (185) 
openbind_a71ev2a_c2_elabs,syndirella_product,openbind_a71ev2a_c2_elabs_scored,BulkDock Fragalysis export,openbind_a71ev2a_c2_elabs_scored_top80percent,openbind_a71ev2a_c2_elabs_scored_top80percent_despaghettified,syndirella_placed

>  <smina_score_min>  (185) 
-6.344

$$$$
P570239
     RDKit          3D

 21 23  0  0  0  0  0  0  0  0999 V2000
    9.4381    8.8924   23.1366 C   0  0  0  0  0  0  0  0  0  0  0  0
    9.0941   10.1950   23.6605 N   0  0  0  0  0  0  0  0  0  0  0  0
    9.8151   11.2553   23.2562 N   0  0  0  0  0  0  0  0  0  0  0  0
    9.3383   12.2809   23.9836 C   0  0  0  0  0  0  0  0  0  0  0  0
    9.9955   13.5923   23.9586 C   0  0  0  0  0  0  0  0  0  0  0  0
    9.7592   14.4057   24.7611 O   0  0  0  0  0  0  0  0  0  0  0  0
   10.9280   13.6392   22.7346 N   0  0  0  0  0  0  0  0  0  0  0  0
   11.8118   14.6316   22.3047 C   0  0  1  0  0  0  0  0  0  0  0  0
   12.3794   14.7309   20.9386 C   0  0  0  0  0  0  0  0  0  0  0  0
   11.3556   15.7484   21.3799 C   0  0  1  0  0  0  0  0  0  0  0  0
   10.0482   15.8763   20.5940 C   0  0  0  0  0  0  0  0  0  0  0  0
    9.5319   17.3372   20.6585 C   0  0  0  0  0  0  0  0  0  0  0  0
    8.9364   14.9782   21.1433 C   0  0  0  0  0  0  0  0  0  0  0  0
   10.2981   15.5277   19.1173 C   0  0  0  0  0  0  0  0  0  0  0  0
    8.2115   11.8959   24.7525 C   0  0  0  0  0  0  0  0  0  0  0  0
    7.3070   12.5475   25.6133 C   0  0  0  0  0  0  0  0  0  0  0  0
    6.3609   11.7816   26.2892 C   0  0  0  0  0  0  0  0  0  0  0  0
    5.5238   12.3799   27.1466 F   0  0  0  0  0  0  0  0  0  0  0  0
    6.2968   10.4047   26.1331 C   0  0  0  0  0  0  0  0  0  0  0  0
    7.1792    9.7524   25.2698 C   0  0  0  0  0  0  0  0  0  0  0  0
    8.1171   10.5189   24.5727 C   0  0  0  0  0  0  0  0  0  0  0  0
  1  2  1  0
  2  3  1  0
  3  4  2  0
  4  5  1  0
  5  6  2  0
  5  7  1  0
  8  7  1  6
  8  9  1  0
  9 10  1  0
 10 11  1  6
 11 12  1  0
 11 13  1  0
 11 14  1  0
  4 15  1  0
 15 16  2  0
 16 17  1  0
 17 18  1  0
 17 19  2  0
 19 20  1  0
 20 21  2  0
 21  2  1  0
 10  8  1  0
 21 15  1  0
M  END
>  <alias>  (186) 
None

>  <rmsd(smina/fragmenstein)>  (186) 
0.324

>  <smiles>  (186) 
Cn1nc(C(=O)N[C@H]2C[C@H]2C(C)(C)C)c2cc(F)ccc21

>  <gnina_score>  (186) 
5.913

>  <inspiration_score>  (186) 
None

>  <energy_score>  (186) 
-12.621787

>  <distance_score>  (186) 
0.519085

>  <gnina_score_min>  (186) 
5.853

>  <inchikey>  (186) 
KIVXXCGRBPKJNG-NEPJUHHUSA-N

>  <exports>  (186) 
['/opt/xchem-fragalysis-2/maxwin/BulkDock/OUTPUTS/openbind_a71ev2a_c2_elabs_1LOUU54.sdf', '/opt/xchem-fragalysis-2/maxwin/BulkDock/OUTPUTS/openbind_a71ev2a_c2_elabs_1LSYIDY.sdf']

>  <name>  (186) 
P570239

>  <ref_pdb>  (186) 
A2339a

>  <subsites>  (186) 
None

>  <HIPPO Pose ID>  (186) 
570239

>  <ref_mols>  (186) 
A2339a

>  <HIPPO Compound ID>  (186) 
411150

>  <tags>  (186) 
openbind_a71ev2a_c2_elabs,syndirella_product,openbind_a71ev2a_c2_elabs_scored,BulkDock Fragalysis export,openbind_a71ev2a_c2_elabs_scored_top80percent,openbind_a71ev2a_c2_elabs_scored_top80percent_despaghettified,syndirella_placed

>  <smina_score_min>  (186) 
-7.815

$$$$
P570244
     RDKit          3D

 21 23  0  0  0  0  0  0  0  0999 V2000
   12.7197   15.0736   21.5119 C   0  0  0  0  0  0  0  0  0  0  0  0
   11.9210   14.3244   22.5648 C   0  0  2  0  0  0  0  0  0  0  0  0
   12.6584   13.2321   23.1109 O   0  0  0  0  0  0  0  0  0  0  0  0
   10.5871   13.8688   21.9475 C   0  0  0  0  0  0  0  0  0  0  0  0
    9.3541   14.4091   22.7721 N   0  0  0  0  0  0  0  0  0  0  0  0
    8.2840   13.4856   22.7197 C   0  0  0  0  0  0  0  0  0  0  0  0
    7.3641   13.3958   21.9485 O   0  0  0  0  0  0  0  0  0  0  0  0
    8.4168   12.4275   23.7353 C   0  0  0  0  0  0  0  0  0  0  0  0
    9.2287   11.3864   23.4737 N   0  0  0  0  0  0  0  0  0  0  0  0
    8.6544   10.3579   24.1111 N   0  0  0  0  0  0  0  0  0  0  0  0
    9.0837    9.0238   23.7599 C   0  0  0  0  0  0  0  0  0  0  0  0
    7.6633   10.7493   24.9789 C   0  0  0  0  0  0  0  0  0  0  0  0
    6.8033   10.0339   25.8194 C   0  0  0  0  0  0  0  0  0  0  0  0
    5.8915   10.7565   26.5906 C   0  0  0  0  0  0  0  0  0  0  0  0
    5.8016   12.1360   26.4652 C   0  0  0  0  0  0  0  0  0  0  0  0
    4.9041   12.7965   27.2082 F   0  0  0  0  0  0  0  0  0  0  0  0
    6.5918   12.8430   25.5614 C   0  0  0  0  0  0  0  0  0  0  0  0
    7.5510   12.1342   24.8165 C   0  0  0  0  0  0  0  0  0  0  0  0
    9.6322   15.6459   21.9493 C   0  0  0  0  0  0  0  0  0  0  0  0
    8.4477   16.4706   21.4971 C   0  0  0  0  0  0  0  0  0  0  0  0
    9.3069   15.8115   20.4806 C   0  0  0  0  0  0  0  0  0  0  0  0
  2  1  1  6
  2  3  1  0
  2  4  1  0
  4  5  1  0
  5  6  1  0
  6  7  2  0
  6  8  1  0
  8  9  2  0
  9 10  1  0
 10 11  1  0
 10 12  1  0
 12 13  2  0
 13 14  1  0
 14 15  2  0
 15 16  1  0
 15 17  1  0
 17 18  2  0
  5 19  1  0
 19 20  1  0
 20 21  1  0
 18  8  1  0
 21 19  1  0
 18 12  1  0
M  END
>  <alias>  (187) 
None

>  <rmsd(smina/fragmenstein)>  (187) 
0.254

>  <smiles>  (187) 
C[C@H](O)CN(C(=O)c1nn(C)c2ccc(F)cc12)C1CC1

>  <gnina_score>  (187) 
5.351

>  <inspiration_score>  (187) 
None

>  <energy_score>  (187) 
-14.743862

>  <distance_score>  (187) 
1.580422

>  <gnina_score_min>  (187) 
5.288

>  <inchikey>  (187) 
OPEQNGOGALYKJL-VIFPVBQESA-N

>  <exports>  (187) 
['/opt/xchem-fragalysis-2/maxwin/BulkDock/OUTPUTS/openbind_a71ev2a_c2_elabs_1LOUU54.sdf', '/opt/xchem-fragalysis-2/maxwin/BulkDock/OUTPUTS/openbind_a71ev2a_c2_elabs_1LSYIDY.sdf']

>  <name>  (187) 
P570244

>  <ref_pdb>  (187) 
A2339a

>  <subsites>  (187) 
None

>  <HIPPO Pose ID>  (187) 
570244

>  <ref_mols>  (187) 
A2339a

>  <HIPPO Compound ID>  (187) 
411155

>  <tags>  (187) 
openbind_a71ev2a_c2_elabs,syndirella_product,openbind_a71ev2a_c2_elabs_scored,BulkDock Fragalysis export,openbind_a71ev2a_c2_elabs_scored_top80percent,openbind_a71ev2a_c2_elabs_scored_top80percent_despaghettified,syndirella_placed

>  <smina_score_min>  (187) 
-5.813

$$$$
P570245
     RDKit          3D

 22 24  0  0  0  0  0  0  0  0999 V2000
    9.3953    8.8348   23.4023 C   0  0  0  0  0  0  0  0  0  0  0  0
    8.8294   10.1279   23.7119 N   0  0  0  0  0  0  0  0  0  0  0  0
    9.2918   11.1993   23.0445 N   0  0  0  0  0  0  0  0  0  0  0  0
    8.5299   12.2184   23.4848 C   0  0  0  0  0  0  0  0  0  0  0  0
    8.7284   13.5827   22.9992 C   0  0  0  0  0  0  0  0  0  0  0  0
    8.0298   14.4608   23.3090 O   0  0  0  0  0  0  0  0  0  0  0  0
   10.0128   13.5819   22.1630 N   0  0  0  0  0  0  0  0  0  0  0  0
   10.7454   14.6417   21.6240 C   0  0  0  0  0  0  0  0  0  0  0  0
   11.8139   15.0546   22.6238 C   0  0  0  0  0  0  0  0  0  0  0  0
   11.7963   14.2464   23.9667 C   0  0  0  0  0  0  0  0  0  0  0  0
   10.7191   14.7018   24.9735 C   0  0  0  0  0  0  0  0  0  0  0  0
   11.2033   15.3929   26.2386 C   0  0  0  0  0  0  0  0  0  0  0  0
   10.0863   15.8338   26.9989 O   0  0  0  0  0  0  0  0  0  0  0  0
   10.0657   15.7077   20.8019 C   0  0  0  0  0  0  0  0  0  0  0  0
   11.0734   14.8050   20.1667 C   0  0  0  0  0  0  0  0  0  0  0  0
    7.7117   11.8265   24.5674 C   0  0  0  0  0  0  0  0  0  0  0  0
    6.8575   12.4866   25.4697 C   0  0  0  0  0  0  0  0  0  0  0  0
    6.1269   11.7191   26.3683 C   0  0  0  0  0  0  0  0  0  0  0  0
    5.3273   12.3280   27.2522 F   0  0  0  0  0  0  0  0  0  0  0  0
    6.2054   10.3352   26.3677 C   0  0  0  0  0  0  0  0  0  0  0  0
    7.0779    9.6797   25.4962 C   0  0  0  0  0  0  0  0  0  0  0  0
    7.8599   10.4460   24.6336 C   0  0  0  0  0  0  0  0  0  0  0  0
  1  2  1  0
  2  3  1  0
  3  4  2  0
  4  5  1  0
  5  6  2  0
  5  7  1  0
  7  8  1  0
  8  9  1  0
  9 10  1  0
 10 11  1  0
 11 12  1  0
 12 13  1  0
  8 14  1  0
 14 15  1  0
  4 16  1  0
 16 17  2  0
 17 18  1  0
 18 19  1  0
 18 20  2  0
 20 21  1  0
 21 22  2  0
 22  2  1  0
 15  8  1  0
 22 16  1  0
M  END
>  <alias>  (188) 
None

>  <rmsd(smina/fragmenstein)>  (188) 
1.053

>  <smiles>  (188) 
Cn1nc(C(=O)NC2(CCCCO)CC2)c2cc(F)ccc21

>  <gnina_score>  (188) 
5.814

>  <inspiration_score>  (188) 
None

>  <energy_score>  (188) 
-20.275673

>  <distance_score>  (188) 
0.733431

>  <gnina_score_min>  (188) 
5.664

>  <inchikey>  (188) 
BSNNFAYHZJPKRP-UHFFFAOYSA-N

>  <exports>  (188) 
['/opt/xchem-fragalysis-2/maxwin/BulkDock/OUTPUTS/openbind_a71ev2a_c2_elabs_1LOUU54.sdf', '/opt/xchem-fragalysis-2/maxwin/BulkDock/OUTPUTS/openbind_a71ev2a_c2_elabs_1LSYIDY.sdf']

>  <name>  (188) 
P570245

>  <ref_pdb>  (188) 
A2339a

>  <subsites>  (188) 
None

>  <HIPPO Pose ID>  (188) 
570245

>  <ref_mols>  (188) 
A2339a

>  <HIPPO Compound ID>  (188) 
411157

>  <tags>  (188) 
openbind_a71ev2a_c2_elabs,syndirella_product,openbind_a71ev2a_c2_elabs_scored,BulkDock Fragalysis export,openbind_a71ev2a_c2_elabs_scored_top80percent,openbind_a71ev2a_c2_elabs_scored_top80percent_despaghettified,syndirella_placed

>  <smina_score_min>  (188) 
-5.502

$$$$
P570247
     RDKit          3D

 22 25  0  0  0  0  0  0  0  0999 V2000
    9.4416    8.7313   23.3710 C   0  0  0  0  0  0  0  0  0  0  0  0
    8.9859   10.0528   23.7298 N   0  0  0  0  0  0  0  0  0  0  0  0
    9.5973   11.1072   23.1618 N   0  0  0  0  0  0  0  0  0  0  0  0
    8.9827   12.1713   23.7036 C   0  0  0  0  0  0  0  0  0  0  0  0
    9.3534   13.5349   23.3446 C   0  0  0  0  0  0  0  0  0  0  0  0
    8.8118   14.4416   23.8401 O   0  0  0  0  0  0  0  0  0  0  0  0
   10.5466   13.4948   22.3731 N   0  0  0  0  0  0  0  0  0  0  0  0
   11.2544   14.5464   21.7416 C   0  0  1  0  0  0  0  0  0  0  0  0
   11.9255   15.4484   22.6757 C   0  0  0  0  0  0  0  0  0  0  0  0
   11.2500   15.5092   23.9349 O   0  0  0  0  0  0  0  0  0  0  0  0
   11.9567   14.3851   20.4455 C   0  0  0  0  0  0  0  0  0  0  0  0
   10.6425   15.1262   20.5325 C   0  0  0  0  0  0  0  0  0  0  0  0
    9.2509   14.7929   20.1810 C   0  0  0  0  0  0  0  0  0  0  0  0
    9.7077   15.3222   18.8221 C   0  0  0  0  0  0  0  0  0  0  0  0
   10.5498   16.2831   19.6320 C   0  0  0  0  0  0  0  0  0  0  0  0
    7.9970   11.7964   24.6473 C   0  0  0  0  0  0  0  0  0  0  0  0
    7.1084   12.4787   25.5017 C   0  0  0  0  0  0  0  0  0  0  0  0
    6.2480   11.7345   26.3014 C   0  0  0  0  0  0  0  0  0  0  0  0
    5.4287   12.3674   27.1506 F   0  0  0  0  0  0  0  0  0  0  0  0
    6.2359   10.3504   26.2528 C   0  0  0  0  0  0  0  0  0  0  0  0
    7.1164    9.6696   25.4095 C   0  0  0  0  0  0  0  0  0  0  0  0
    8.0042   10.4077   24.6252 C   0  0  0  0  0  0  0  0  0  0  0  0
  1  2  1  0
  2  3  1  0
  3  4  2  0
  4  5  1  0
  5  6  2  0
  5  7  1  0
  8  7  1  0
  8  9  1  1
  9 10  1  0
  8 11  1  0
 11 12  1  0
 12 13  1  0
 13 14  1  0
 14 15  1  0
  4 16  1  0
 16 17  2  0
 17 18  1  0
 18 19  1  0
 18 20  2  0
 20 21  1  0
 21 22  2  0
 22  2  1  0
 12  8  1  0
 22 16  1  0
 15 12  1  0
M  END
>  <alias>  (189) 
None

>  <rmsd(smina/fragmenstein)>  (189) 
0.367

>  <smiles>  (189) 
Cn1nc(C(=O)N[C@@]2(CO)CC23CCC3)c2cc(F)ccc21

>  <gnina_score>  (189) 
5.685

>  <inspiration_score>  (189) 
None

>  <energy_score>  (189) 
-9.694806

>  <distance_score>  (189) 
0.363624

>  <gnina_score_min>  (189) 
5.765

>  <inchikey>  (189) 
YZRSJQWULYHRQY-MRXNPFEDSA-N

>  <exports>  (189) 
['/opt/xchem-fragalysis-2/maxwin/BulkDock/OUTPUTS/openbind_a71ev2a_c2_elabs_1LOUU54.sdf', '/opt/xchem-fragalysis-2/maxwin/BulkDock/OUTPUTS/openbind_a71ev2a_c2_elabs_1LSYIDY.sdf']

>  <name>  (189) 
P570247

>  <ref_pdb>  (189) 
A2339a

>  <subsites>  (189) 
None

>  <HIPPO Pose ID>  (189) 
570247

>  <ref_mols>  (189) 
A2339a

>  <HIPPO Compound ID>  (189) 
411158

>  <tags>  (189) 
openbind_a71ev2a_c2_elabs,syndirella_product,openbind_a71ev2a_c2_elabs_scored,BulkDock Fragalysis export,openbind_a71ev2a_c2_elabs_scored_top80percent,openbind_a71ev2a_c2_elabs_scored_top80percent_despaghettified,syndirella_placed

>  <smina_score_min>  (189) 
-6.048

$$$$
P570249
     RDKit          3D

 22 25  0  0  0  0  0  0  0  0999 V2000
    9.4656    9.0988   23.2137 C   0  0  0  0  0  0  0  0  0  0  0  0
    9.0085   10.3509   23.7791 N   0  0  0  0  0  0  0  0  0  0  0  0
    9.6413   11.4901   23.4319 N   0  0  0  0  0  0  0  0  0  0  0  0
    9.0472   12.4408   24.1799 C   0  0  0  0  0  0  0  0  0  0  0  0
    9.5053   13.8345   24.1683 C   0  0  0  0  0  0  0  0  0  0  0  0
    9.0979   14.6236   24.9200 O   0  0  0  0  0  0  0  0  0  0  0  0
   10.4870   13.9861   23.0071 N   0  0  0  0  0  0  0  0  0  0  0  0
   11.0938   15.1295   22.4710 C   0  0  1  0  0  0  0  0  0  0  0  0
   12.1130   15.1539   21.3917 C   0  0  0  0  0  0  0  0  0  0  0  0
   12.6595   13.9735   20.9540 F   0  0  0  0  0  0  0  0  0  0  0  0
   13.0812   16.1114   21.3228 F   0  0  0  0  0  0  0  0  0  0  0  0
   10.7123   15.4612   21.0743 C   0  0  0  0  0  0  0  0  0  0  0  0
   10.0459   14.6533   20.0460 C   0  0  0  0  0  0  0  0  0  0  0  0
   10.1027   15.9489   19.2472 C   0  0  0  0  0  0  0  0  0  0  0  0
    9.9880   16.6596   20.6145 C   0  0  0  0  0  0  0  0  0  0  0  0
    7.9734   11.9203   24.9337 C   0  0  0  0  0  0  0  0  0  0  0  0
    7.0194   12.4600   25.8141 C   0  0  0  0  0  0  0  0  0  0  0  0
    6.1402   11.5931   26.4491 C   0  0  0  0  0  0  0  0  0  0  0  0
    5.2581   12.0909   27.3238 F   0  0  0  0  0  0  0  0  0  0  0  0
    6.1861   10.2244   26.2283 C   0  0  0  0  0  0  0  0  0  0  0  0
    7.1215    9.6845   25.3419 C   0  0  0  0  0  0  0  0  0  0  0  0
    8.0000   10.5523   24.6922 C   0  0  0  0  0  0  0  0  0  0  0  0
  1  2  1  0
  2  3  1  0
  3  4  2  0
  4  5  1  0
  5  6  2  0
  5  7  1  0
  8  7  1  6
  8  9  1  0
  9 10  1  0
  9 11  1  0
  9 12  1  0
 12 13  1  0
 13 14  1  0
 14 15  1  0
  4 16  1  0
 16 17  2  0
 17 18  1  0
 18 19  1  0
 18 20  2  0
 20 21  1  0
 21 22  2  0
 22  2  1  0
 12  8  1  0
 22 16  1  0
 15 12  1  0
M  END
>  <alias>  (190) 
None

>  <rmsd(smina/fragmenstein)>  (190) 
0.204

>  <smiles>  (190) 
Cn1nc(C(=O)N[C@H]2C(F)(F)C23CCC3)c2cc(F)ccc21

>  <gnina_score>  (190) 
5.868

>  <inspiration_score>  (190) 
None

>  <energy_score>  (190) 
-5.357526

>  <distance_score>  (190) 
0.632715

>  <gnina_score_min>  (190) 
5.816

>  <inchikey>  (190) 
RWVLDVQBWWFZPM-CYBMUJFWSA-N

>  <exports>  (190) 
['/opt/xchem-fragalysis-2/maxwin/BulkDock/OUTPUTS/openbind_a71ev2a_c2_elabs_1LOUU54.sdf', '/opt/xchem-fragalysis-2/maxwin/BulkDock/OUTPUTS/openbind_a71ev2a_c2_elabs_1LSYIDY.sdf']

>  <name>  (190) 
P570249

>  <ref_pdb>  (190) 
A2339a

>  <subsites>  (190) 
None

>  <HIPPO Pose ID>  (190) 
570249

>  <ref_mols>  (190) 
A2339a

>  <HIPPO Compound ID>  (190) 
411159

>  <tags>  (190) 
openbind_a71ev2a_c2_elabs,syndirella_product,openbind_a71ev2a_c2_elabs_scored,BulkDock Fragalysis export,openbind_a71ev2a_c2_elabs_scored_top80percent,openbind_a71ev2a_c2_elabs_scored_top80percent_despaghettified,syndirella_placed

>  <smina_score_min>  (190) 
-8.196

$$$$
P570252
     RDKit          3D

 22 25  0  0  0  0  0  0  0  0999 V2000
    9.3403    8.6156   23.3885 C   0  0  0  0  0  0  0  0  0  0  0  0
    8.9826    9.9678   23.7399 N   0  0  0  0  0  0  0  0  0  0  0  0
    9.7120   10.9689   23.2191 N   0  0  0  0  0  0  0  0  0  0  0  0
    9.2549   12.0643   23.8448 C   0  0  0  0  0  0  0  0  0  0  0  0
    9.9104   13.3562   23.6798 C   0  0  0  0  0  0  0  0  0  0  0  0
    9.6079   14.2603   24.3522 O   0  0  0  0  0  0  0  0  0  0  0  0
   10.9565   13.2551   22.5545 N   0  0  0  0  0  0  0  0  0  0  0  0
   11.8857   14.1858   22.0975 C   0  0  1  0  0  0  0  0  0  0  0  0
   12.5472   14.5867   20.8399 C   0  0  0  0  0  0  0  0  0  0  0  0
   11.1788   15.1067   21.0960 C   0  0  0  0  0  0  0  0  0  0  0  0
   10.2123   14.6623   20.0490 C   0  0  0  0  0  0  0  0  0  0  0  0
   10.1190   15.6908   18.9462 C   0  0  0  0  0  0  0  0  0  0  0  0
    9.7096   17.3444   19.5393 S   0  0  0  0  0  0  0  0  0  0  0  0
    9.4921   16.9766   21.2515 C   0  0  0  0  0  0  0  0  0  0  0  0
   10.8100   16.3881   21.7533 C   0  0  0  0  0  0  0  0  0  0  0  0
    8.1518   11.7770   24.6866 C   0  0  0  0  0  0  0  0  0  0  0  0
    7.2946   12.5238   25.5199 C   0  0  0  0  0  0  0  0  0  0  0  0
    6.3421   11.8476   26.2765 C   0  0  0  0  0  0  0  0  0  0  0  0
    5.5533   12.5371   27.1108 F   0  0  0  0  0  0  0  0  0  0  0  0
    6.2191   10.4695   26.2168 C   0  0  0  0  0  0  0  0  0  0  0  0
    7.0569    9.7248   25.3853 C   0  0  0  0  0  0  0  0  0  0  0  0
    8.0183   10.3949   24.6241 C   0  0  0  0  0  0  0  0  0  0  0  0
  1  2  1  0
  2  3  1  0
  3  4  2  0
  4  5  1  0
  5  6  2  0
  5  7  1  0
  8  7  1  6
  8  9  1  0
  9 10  1  0
 10 11  1  0
 11 12  1  0
 12 13  1  0
 13 14  1  0
 14 15  1  0
  4 16  1  0
 16 17  2  0
 17 18  1  0
 18 19  1  0
 18 20  2  0
 20 21  1  0
 21 22  2  0
 22  2  1  0
 10  8  1  0
 22 16  1  0
 15 10  1  0
M  END
>  <alias>  (191) 
None

>  <rmsd(smina/fragmenstein)>  (191) 
0.244

>  <smiles>  (191) 
Cn1nc(C(=O)N[C@H]2CC23CCSCC3)c2cc(F)ccc21

>  <gnina_score>  (191) 
5.916

>  <inspiration_score>  (191) 
None

>  <energy_score>  (191) 
-22.038832

>  <distance_score>  (191) 
0.468524

>  <gnina_score_min>  (191) 
5.963

>  <inchikey>  (191) 
VPLDDWXUKGRMMZ-ZDUSSCGKSA-N

>  <exports>  (191) 
['/opt/xchem-fragalysis-2/maxwin/BulkDock/OUTPUTS/openbind_a71ev2a_c2_elabs_1LOUU54.sdf', '/opt/xchem-fragalysis-2/maxwin/BulkDock/OUTPUTS/openbind_a71ev2a_c2_elabs_1LSYIDY.sdf']

>  <name>  (191) 
P570252

>  <ref_pdb>  (191) 
A2339a

>  <subsites>  (191) 
None

>  <HIPPO Pose ID>  (191) 
570252

>  <ref_mols>  (191) 
A2339a

>  <HIPPO Compound ID>  (191) 
411162

>  <tags>  (191) 
openbind_a71ev2a_c2_elabs,syndirella_product,openbind_a71ev2a_c2_elabs_scored,BulkDock Fragalysis export,openbind_a71ev2a_c2_elabs_scored_top80percent,openbind_a71ev2a_c2_elabs_scored_top80percent_despaghettified,syndirella_placed

>  <smina_score_min>  (191) 
-4.85

$$$$
P570254
     RDKit          3D

 22 25  0  0  0  0  0  0  0  0999 V2000
    9.1399    8.4702   23.5078 C   0  0  0  0  0  0  0  0  0  0  0  0
    8.7939    9.8300   23.8263 N   0  0  0  0  0  0  0  0  0  0  0  0
    9.4886   10.7932   23.2183 N   0  0  0  0  0  0  0  0  0  0  0  0
    8.9625   11.9274   23.7008 C   0  0  0  0  0  0  0  0  0  0  0  0
    9.4925   13.2026   23.2711 C   0  0  0  0  0  0  0  0  0  0  0  0
    9.0036   14.2108   23.5878 O   0  0  0  0  0  0  0  0  0  0  0  0
   10.7794   12.9246   22.4768 N   0  0  0  0  0  0  0  0  0  0  0  0
   11.7925   13.8304   21.9831 C   0  0  1  0  0  0  0  0  0  0  0  0
   11.5833   14.4337   20.5932 C   0  0  0  0  0  0  0  0  0  0  0  0
   11.4800   15.7480   21.2443 N   0  0  0  0  0  0  0  0  0  0  0  0
   10.4294   16.6464   20.9512 C   0  0  0  0  0  0  0  0  0  0  0  0
    9.7081   16.6464   19.6631 C   0  0  0  0  0  0  0  0  0  0  0  0
    8.9934   16.2378   20.9263 C   0  0  0  0  0  0  0  0  0  0  0  0
   11.5525   15.2305   22.4994 C   0  0  0  0  0  0  0  0  0  0  0  0
   11.3053   15.6566   23.6069 O   0  0  0  0  0  0  0  0  0  0  0  0
    7.9549   11.6924   24.6575 C   0  0  0  0  0  0  0  0  0  0  0  0
    7.1388   12.4921   25.4801 C   0  0  0  0  0  0  0  0  0  0  0  0
    6.2376   11.8621   26.3309 C   0  0  0  0  0  0  0  0  0  0  0  0
    5.4825   12.5982   27.1557 F   0  0  0  0  0  0  0  0  0  0  0  0
    6.1159   10.4826   26.3601 C   0  0  0  0  0  0  0  0  0  0  0  0
    6.9177    9.6875   25.5399 C   0  0  0  0  0  0  0  0  0  0  0  0
    7.8526   10.3066   24.7095 C   0  0  0  0  0  0  0  0  0  0  0  0
  1  2  1  0
  2  3  1  0
  3  4  2  0
  4  5  1  0
  5  6  2  0
  5  7  1  0
  8  7  1  1
  8  9  1  0
  9 10  1  0
 10 11  1  0
 11 12  1  0
 12 13  1  0
 10 14  1  0
 14 15  2  0
  4 16  1  0
 16 17  2  0
 17 18  1  0
 18 19  1  0
 18 20  2  0
 20 21  1  0
 21 22  2  0
 22  2  1  0
 14  8  1  0
 22 16  1  0
 13 11  1  0
M  END
>  <alias>  (192) 
None

>  <rmsd(smina/fragmenstein)>  (192) 
0.276

>  <smiles>  (192) 
Cn1nc(C(=O)N[C@H]2CN(C3CC3)C2=O)c2cc(F)ccc21

>  <gnina_score>  (192) 
5.905

>  <inspiration_score>  (192) 
None

>  <energy_score>  (192) 
-23.327266

>  <distance_score>  (192) 
0.784924

>  <gnina_score_min>  (192) 
5.991

>  <inchikey>  (192) 
CEUJOXPLOIJTFZ-NSHDSACASA-N

>  <exports>  (192) 
['/opt/xchem-fragalysis-2/maxwin/BulkDock/OUTPUTS/openbind_a71ev2a_c2_elabs_1LOUU54.sdf', '/opt/xchem-fragalysis-2/maxwin/BulkDock/OUTPUTS/openbind_a71ev2a_c2_elabs_1LSYIDY.sdf']

>  <name>  (192) 
P570254

>  <ref_pdb>  (192) 
A2339a

>  <subsites>  (192) 
None

>  <HIPPO Pose ID>  (192) 
570254

>  <ref_mols>  (192) 
A2339a

>  <HIPPO Compound ID>  (192) 
411163

>  <tags>  (192) 
openbind_a71ev2a_c2_elabs,syndirella_product,openbind_a71ev2a_c2_elabs_scored,BulkDock Fragalysis export,openbind_a71ev2a_c2_elabs_scored_top80percent,openbind_a71ev2a_c2_elabs_scored_top80percent_despaghettified,syndirella_placed

>  <smina_score_min>  (192) 
-6.145

$$$$
P570258
     RDKit          3D

 22 24  0  0  0  0  0  0  0  0999 V2000
   10.3772   15.1677   25.6341 C   0  0  0  0  0  0  0  0  0  0  0  0
    9.9955   15.3518   24.2750 O   0  0  0  0  0  0  0  0  0  0  0  0
   11.1274   15.4482   23.3903 C   0  0  0  0  0  0  0  0  0  0  0  0
   10.8533   14.8169   22.0542 C   0  0  2  0  0  0  0  0  0  0  0  0
   10.2912   13.5751   22.3445 N   0  0  0  0  0  0  0  0  0  0  0  0
   10.6621   12.5422   23.4043 C   0  0  0  0  0  0  0  0  0  0  0  0
   11.5465   12.5206   24.1609 O   0  0  0  0  0  0  0  0  0  0  0  0
    9.6465   11.5251   23.4540 C   0  0  0  0  0  0  0  0  0  0  0  0
    9.7999   10.3706   22.8188 N   0  0  0  0  0  0  0  0  0  0  0  0
    9.0151    9.5492   23.5123 N   0  0  0  0  0  0  0  0  0  0  0  0
    9.2576    8.1489   23.3544 C   0  0  0  0  0  0  0  0  0  0  0  0
    8.1571   10.1836   24.3797 C   0  0  0  0  0  0  0  0  0  0  0  0
    7.1568    9.7290   25.2469 C   0  0  0  0  0  0  0  0  0  0  0  0
    6.4704   10.6610   26.0231 C   0  0  0  0  0  0  0  0  0  0  0  0
    6.7954   12.0045   25.9460 C   0  0  0  0  0  0  0  0  0  0  0  0
    6.1511   12.8644   26.7468 F   0  0  0  0  0  0  0  0  0  0  0  0
    7.8130   12.4626   25.1047 C   0  0  0  0  0  0  0  0  0  0  0  0
    8.5058   11.5274   24.3073 C   0  0  0  0  0  0  0  0  0  0  0  0
   11.9153   15.0987   21.0327 C   0  0  0  0  0  0  0  0  0  0  0  0
   10.4988   15.5667   20.7731 C   0  0  0  0  0  0  0  0  0  0  0  0
   10.0315   16.9792   20.8756 C   0  0  0  0  0  0  0  0  0  0  0  0
    9.8337   14.8713   19.6582 C   0  0  0  0  0  0  0  0  0  0  0  0
  1  2  1  0
  2  3  1  0
  4  3  1  1
  4  5  1  0
  5  6  1  0
  6  7  2  0
  6  8  1  0
  8  9  2  0
  9 10  1  0
 10 11  1  0
 10 12  1  0
 12 13  2  0
 13 14  1  0
 14 15  2  0
 15 16  1  0
 15 17  1  0
 17 18  2  0
  4 19  1  0
 19 20  1  0
 20 21  1  0
 20 22  1  0
 20  4  1  0
 18  8  1  0
 18 12  1  0
M  END
>  <alias>  (193) 
None

>  <rmsd(smina/fragmenstein)>  (193) 
0.162

>  <smiles>  (193) 
COC[C@]1(NC(=O)c2nn(C)c3ccc(F)cc23)CC1(C)C

>  <gnina_score>  (193) 
5.977

>  <inspiration_score>  (193) 
None

>  <energy_score>  (193) 
-17.429441

>  <distance_score>  (193) 
0.89267

>  <gnina_score_min>  (193) 
5.969

>  <inchikey>  (193) 
HNJPHCWPQNIQEQ-MRXNPFEDSA-N

>  <exports>  (193) 
['/opt/xchem-fragalysis-2/maxwin/BulkDock/OUTPUTS/openbind_a71ev2a_c2_elabs_1LOUU54.sdf', '/opt/xchem-fragalysis-2/maxwin/BulkDock/OUTPUTS/openbind_a71ev2a_c2_elabs_1LSYIDY.sdf']

>  <name>  (193) 
P570258

>  <ref_pdb>  (193) 
A2339a

>  <subsites>  (193) 
None

>  <HIPPO Pose ID>  (193) 
570258

>  <ref_mols>  (193) 
A2339a

>  <HIPPO Compound ID>  (193) 
411165

>  <tags>  (193) 
openbind_a71ev2a_c2_elabs,syndirella_product,openbind_a71ev2a_c2_elabs_scored,BulkDock Fragalysis export,openbind_a71ev2a_c2_elabs_scored_top80percent,openbind_a71ev2a_c2_elabs_scored_top80percent_despaghettified,syndirella_placed

>  <smina_score_min>  (193) 
-5.617

$$$$
P570268
     RDKit          3D

 22 24  0  0  0  0  0  0  0  0999 V2000
   12.3660   15.6082   21.3472 C   0  0  0  0  0  0  0  0  0  0  0  0
   11.9700   15.4972   19.9576 N   0  0  0  0  0  0  0  0  0  0  0  0
   12.5319   14.2999   19.4158 C   0  0  0  0  0  0  0  0  0  0  0  0
   10.5898   15.6799   19.5454 C   0  0  0  0  0  0  0  0  0  0  0  0
    9.5930   14.7145   20.1486 C   0  0  0  0  0  0  0  0  0  0  0  0
    9.2520   14.9202   21.5686 C   0  0  0  0  0  0  0  0  0  0  0  0
    9.2351   13.7918   22.4018 N   0  0  0  0  0  0  0  0  0  0  0  0
    9.0053   13.6725   23.9106 C   0  0  0  0  0  0  0  0  0  0  0  0
    8.8686   14.4975   24.7220 O   0  0  0  0  0  0  0  0  0  0  0  0
    8.8755   12.2616   24.1916 C   0  0  0  0  0  0  0  0  0  0  0  0
    9.4661   11.3086   23.4515 N   0  0  0  0  0  0  0  0  0  0  0  0
    8.9177   10.1661   23.9083 N   0  0  0  0  0  0  0  0  0  0  0  0
    9.4118    8.9136   23.3830 C   0  0  0  0  0  0  0  0  0  0  0  0
    7.9171   10.3856   24.8285 C   0  0  0  0  0  0  0  0  0  0  0  0
    7.0206    9.5528   25.4885 C   0  0  0  0  0  0  0  0  0  0  0  0
    6.0882   10.1137   26.3671 C   0  0  0  0  0  0  0  0  0  0  0  0
    6.0589   11.4827   26.5716 C   0  0  0  0  0  0  0  0  0  0  0  0
    5.1761   12.0101   27.4270 F   0  0  0  0  0  0  0  0  0  0  0  0
    6.9454   12.3231   25.9203 C   0  0  0  0  0  0  0  0  0  0  0  0
    7.8929   11.7515   25.0530 C   0  0  0  0  0  0  0  0  0  0  0  0
    9.6869   16.1821   22.1692 C   0  0  0  0  0  0  0  0  0  0  0  0
    8.2352   15.9768   21.9066 C   0  0  0  0  0  0  0  0  0  0  0  0
  1  2  1  0
  2  3  1  0
  2  4  1  0
  4  5  1  0
  5  6  1  0
  6  7  1  0
  7  8  1  0
  8  9  2  0
  8 10  1  0
 10 11  2  0
 11 12  1  0
 12 13  1  0
 12 14  1  0
 14 15  2  0
 15 16  1  0
 16 17  2  0
 17 18  1  0
 17 19  1  0
 19 20  2  0
  6 21  1  0
 21 22  1  0
 22  6  1  0
 20 10  1  0
 20 14  1  0
M  END
>  <alias>  (194) 
None

>  <rmsd(smina/fragmenstein)>  (194) 
0.824

>  <smiles>  (194) 
CN(C)CCC1(NC(=O)c2nn(C)c3ccc(F)cc23)CC1

>  <gnina_score>  (194) 
5.829

>  <inspiration_score>  (194) 
None

>  <energy_score>  (194) 
-25.256685

>  <distance_score>  (194) 
1.31737

>  <gnina_score_min>  (194) 
5.942

>  <inchikey>  (194) 
DPWPJPQMDRPSKG-UHFFFAOYSA-N

>  <exports>  (194) 
['/opt/xchem-fragalysis-2/maxwin/BulkDock/OUTPUTS/openbind_a71ev2a_c2_elabs_1LOUU54.sdf', '/opt/xchem-fragalysis-2/maxwin/BulkDock/OUTPUTS/openbind_a71ev2a_c2_elabs_1LSYIDY.sdf']

>  <name>  (194) 
P570268

>  <ref_pdb>  (194) 
A2339a

>  <subsites>  (194) 
None

>  <HIPPO Pose ID>  (194) 
570268

>  <ref_mols>  (194) 
A2339a

>  <HIPPO Compound ID>  (194) 
411168

>  <tags>  (194) 
openbind_a71ev2a_c2_elabs,syndirella_product,openbind_a71ev2a_c2_elabs_scored,BulkDock Fragalysis export,openbind_a71ev2a_c2_elabs_scored_top80percent,openbind_a71ev2a_c2_elabs_scored_top80percent_despaghettified,syndirella_placed

>  <smina_score_min>  (194) 
-6.013

$$$$
P570269
     RDKit          3D

 22 24  0  0  0  0  0  0  0  0999 V2000
    9.5067    9.0336   23.2288 C   0  0  0  0  0  0  0  0  0  0  0  0
    8.9845   10.3022   23.6904 N   0  0  0  0  0  0  0  0  0  0  0  0
    9.4562   11.4394   23.1387 N   0  0  0  0  0  0  0  0  0  0  0  0
    8.8046   12.4186   23.7931 C   0  0  0  0  0  0  0  0  0  0  0  0
    8.9829   13.8300   23.4508 C   0  0  0  0  0  0  0  0  0  0  0  0
    8.6173   14.6800   24.1624 O   0  0  0  0  0  0  0  0  0  0  0  0
    9.6809   13.9069   22.0768 N   0  0  0  0  0  0  0  0  0  0  0  0
    9.9868   15.0302   21.2561 C   0  0  0  0  0  0  0  0  0  0  0  0
   10.7224   14.8114   19.9939 C   0  0  0  0  0  0  0  0  0  0  0  0
   12.3472   14.3910   20.4942 S   0  0  0  0  0  0  0  0  0  0  0  0
   12.8489   13.5562   19.4328 O   0  0  0  0  0  0  0  0  0  0  0  0
   13.0447   15.5690   20.9613 O   0  0  0  0  0  0  0  0  0  0  0  0
   12.2535   13.4367   21.7663 F   0  0  0  0  0  0  0  0  0  0  0  0
    9.1065   16.2455   21.3376 C   0  0  0  0  0  0  0  0  0  0  0  0
   10.4549   16.2278   21.9868 C   0  0  0  0  0  0  0  0  0  0  0  0
    7.9055   11.9059   24.7538 C   0  0  0  0  0  0  0  0  0  0  0  0
    6.9878   12.4653   25.6611 C   0  0  0  0  0  0  0  0  0  0  0  0
    6.1886   11.6090   26.4076 C   0  0  0  0  0  0  0  0  0  0  0  0
    5.3290   12.1286   27.2925 F   0  0  0  0  0  0  0  0  0  0  0  0
    6.2719   10.2321   26.2639 C   0  0  0  0  0  0  0  0  0  0  0  0
    7.1924    9.6701   25.3748 C   0  0  0  0  0  0  0  0  0  0  0  0
    8.0071   10.5256   24.6323 C   0  0  0  0  0  0  0  0  0  0  0  0
  1  2  1  0
  2  3  1  0
  3  4  2  0
  4  5  1  0
  5  6  2  0
  5  7  1  0
  7  8  1  0
  8  9  1  0
  9 10  1  0
 10 11  2  0
 10 12  2  0
 10 13  1  0
  8 14  1  0
 14 15  1  0
  4 16  1  0
 16 17  2  0
 17 18  1  0
 18 19  1  0
 18 20  2  0
 20 21  1  0
 21 22  2  0
 22  2  1  0
 15  8  1  0
 22 16  1  0
M  END
>  <alias>  (195) 
None

>  <rmsd(smina/fragmenstein)>  (195) 
0.858

>  <smiles>  (195) 
Cn1nc(C(=O)NC2(CS(=O)(=O)F)CC2)c2cc(F)ccc21

>  <gnina_score>  (195) 
5.839

>  <inspiration_score>  (195) 
None

>  <energy_score>  (195) 
-14.673729

>  <distance_score>  (195) 
0.987371

>  <gnina_score_min>  (195) 
5.768

>  <inchikey>  (195) 
LZGOWORQESVSSF-UHFFFAOYSA-N

>  <exports>  (195) 
['/opt/xchem-fragalysis-2/maxwin/BulkDock/OUTPUTS/openbind_a71ev2a_c2_elabs_1LOUU54.sdf', '/opt/xchem-fragalysis-2/maxwin/BulkDock/OUTPUTS/openbind_a71ev2a_c2_elabs_1LSYIDY.sdf']

>  <name>  (195) 
P570269

>  <ref_pdb>  (195) 
A2339a

>  <subsites>  (195) 
None

>  <HIPPO Pose ID>  (195) 
570269

>  <ref_mols>  (195) 
A2339a

>  <HIPPO Compound ID>  (195) 
411172

>  <tags>  (195) 
openbind_a71ev2a_c2_elabs,syndirella_product,openbind_a71ev2a_c2_elabs_scored,BulkDock Fragalysis export,openbind_a71ev2a_c2_elabs_scored_top80percent,openbind_a71ev2a_c2_elabs_scored_top80percent_despaghettified,syndirella_placed

>  <smina_score_min>  (195) 
-6.172

$$$$
P570274
     RDKit          3D

 22 24  0  0  0  0  0  0  0  0999 V2000
    9.6127    8.7885   23.0576 C   0  0  0  0  0  0  0  0  0  0  0  0
    9.2338   10.1142   23.4858 N   0  0  0  0  0  0  0  0  0  0  0  0
    9.8516   11.1727   22.9258 N   0  0  0  0  0  0  0  0  0  0  0  0
    9.3045   12.2344   23.5334 C   0  0  0  0  0  0  0  0  0  0  0  0
    9.7087   13.6068   23.2221 C   0  0  0  0  0  0  0  0  0  0  0  0
    9.4664   14.4513   23.9939 O   0  0  0  0  0  0  0  0  0  0  0  0
   10.3309   13.6902   21.8008 N   0  0  0  0  0  0  0  0  0  0  0  0
   10.8659   14.8125   21.0818 C   0  0  1  0  0  0  0  0  0  0  0  0
   10.4968   16.1205   21.6990 C   0  0  0  0  0  0  0  0  0  0  0  0
    9.1568   16.1516   21.9085 F   0  0  0  0  0  0  0  0  0  0  0  0
   11.1224   16.1428   22.9079 F   0  0  0  0  0  0  0  0  0  0  0  0
   12.2857   14.7162   20.5732 C   0  0  0  0  0  0  0  0  0  0  0  0
   11.1615   14.8982   19.6295 C   0  0  0  0  0  0  0  0  0  0  0  0
   10.9973   13.9090   18.6999 F   0  0  0  0  0  0  0  0  0  0  0  0
   10.9951   16.0833   18.9548 F   0  0  0  0  0  0  0  0  0  0  0  0
    8.2994   11.8490   24.4660 C   0  0  0  0  0  0  0  0  0  0  0  0
    7.4054   12.5191   25.3269 C   0  0  0  0  0  0  0  0  0  0  0  0
    6.5241   11.7636   26.0982 C   0  0  0  0  0  0  0  0  0  0  0  0
    5.6955   12.3826   26.9502 F   0  0  0  0  0  0  0  0  0  0  0  0
    6.5033   10.3786   26.0254 C   0  0  0  0  0  0  0  0  0  0  0  0
    7.3865    9.7052   25.1792 C   0  0  0  0  0  0  0  0  0  0  0  0
    8.2739   10.4607   24.4063 C   0  0  0  0  0  0  0  0  0  0  0  0
  1  2  1  0
  2  3  1  0
  3  4  2  0
  4  5  1  0
  5  6  2  0
  5  7  1  0
  8  7  1  6
  8  9  1  0
  9 10  1  0
  9 11  1  0
  8 12  1  0
 12 13  1  0
 13 14  1  0
 13 15  1  0
  4 16  1  0
 16 17  2  0
 17 18  1  0
 18 19  1  0
 18 20  2  0
 20 21  1  0
 21 22  2  0
 22  2  1  0
 13  8  1  0
 22 16  1  0
M  END
>  <alias>  (196) 
None

>  <rmsd(smina/fragmenstein)>  (196) 
0.912

>  <smiles>  (196) 
Cn1nc(C(=O)N[C@@]2(C(F)F)CC2(F)F)c2cc(F)ccc21

>  <gnina_score>  (196) 
5.654

>  <inspiration_score>  (196) 
None

>  <energy_score>  (196) 
-21.484199

>  <distance_score>  (196) 
0.350333

>  <gnina_score_min>  (196) 
5.823

>  <inchikey>  (196) 
MTLYXNVSENYVGY-GFCCVEGCSA-N

>  <exports>  (196) 
['/opt/xchem-fragalysis-2/maxwin/BulkDock/OUTPUTS/openbind_a71ev2a_c2_elabs_1LOUU54.sdf', '/opt/xchem-fragalysis-2/maxwin/BulkDock/OUTPUTS/openbind_a71ev2a_c2_elabs_1LSYIDY.sdf']

>  <name>  (196) 
P570274

>  <ref_pdb>  (196) 
A2339a

>  <subsites>  (196) 
None

>  <HIPPO Pose ID>  (196) 
570274

>  <ref_mols>  (196) 
A2339a

>  <HIPPO Compound ID>  (196) 
411173

>  <tags>  (196) 
openbind_a71ev2a_c2_elabs,syndirella_product,openbind_a71ev2a_c2_elabs_scored,BulkDock Fragalysis export,openbind_a71ev2a_c2_elabs_scored_top80percent,openbind_a71ev2a_c2_elabs_scored_top80percent_despaghettified,syndirella_placed

>  <smina_score_min>  (196) 
-7.872

$$$$
P570276
     RDKit          3D

 22 25  0  0  0  0  0  0  0  0999 V2000
    9.2809    9.1351   23.5321 C   0  0  0  0  0  0  0  0  0  0  0  0
    8.7421   10.3553   24.0977 N   0  0  0  0  0  0  0  0  0  0  0  0
    9.2187   11.5340   23.6557 N   0  0  0  0  0  0  0  0  0  0  0  0
    8.5576   12.4531   24.3899 C   0  0  0  0  0  0  0  0  0  0  0  0
    8.4943   13.8456   23.9771 C   0  0  0  0  0  0  0  0  0  0  0  0
    8.4871   14.7728   24.6759 O   0  0  0  0  0  0  0  0  0  0  0  0
    8.3428   13.7466   22.4693 N   0  0  0  0  0  0  0  0  0  0  0  0
    8.2444   14.7584   21.4864 C   0  0  0  0  0  0  0  0  0  0  0  0
    9.6950   14.9093   21.0461 C   0  0  2  0  0  0  0  0  0  0  0  0
   10.4781   15.9195   21.8969 C   0  0  0  0  0  0  0  0  0  0  0  0
    9.8793   16.9361   20.8954 C   0  0  0  0  0  0  0  0  0  0  0  0
    9.8515   15.8245   19.8889 N   0  0  0  0  0  0  0  0  0  0  0  0
   11.1474   15.6589   19.1977 C   0  0  0  0  0  0  0  0  0  0  0  0
   12.2384   14.7002   19.6736 C   0  0  0  0  0  0  0  0  0  0  0  0
   11.4727   14.4369   18.4342 C   0  0  0  0  0  0  0  0  0  0  0  0
    7.6566   11.8738   25.2857 C   0  0  0  0  0  0  0  0  0  0  0  0
    6.6994   12.3843   26.1723 C   0  0  0  0  0  0  0  0  0  0  0  0
    5.8589   11.4867   26.8053 C   0  0  0  0  0  0  0  0  0  0  0  0
    4.9597   11.9573   27.6745 F   0  0  0  0  0  0  0  0  0  0  0  0
    5.9318   10.1255   26.5550 C   0  0  0  0  0  0  0  0  0  0  0  0
    6.8701    9.6230   25.6491 C   0  0  0  0  0  0  0  0  0  0  0  0
    7.7382   10.5118   25.0256 C   0  0  0  0  0  0  0  0  0  0  0  0
  1  2  1  0
  2  3  1  0
  3  4  2  0
  4  5  1  0
  5  6  2  0
  5  7  1  0
  7  8  1  0
  9  8  1  1
  9 10  1  0
 10 11  1  0
 11 12  1  0
 12 13  1  0
 13 14  1  0
 14 15  1  0
  4 16  1  0
 16 17  2  0
 17 18  1  0
 18 19  1  0
 18 20  2  0
 20 21  1  0
 21 22  2  0
 22  2  1  0
 12  9  1  0
 15 13  1  0
 22 16  1  0
M  END
>  <alias>  (197) 
None

>  <rmsd(smina/fragmenstein)>  (197) 
1.209

>  <smiles>  (197) 
Cn1nc(C(=O)NC[C@@H]2CCN2C2CC2)c2cc(F)ccc21

>  <gnina_score>  (197) 
5.583

>  <inspiration_score>  (197) 
None

>  <energy_score>  (197) 
-19.364329

>  <distance_score>  (197) 
1.405942

>  <gnina_score_min>  (197) 
5.606

>  <inchikey>  (197) 
HBHDTUCCHPJLLD-LBPRGKRZSA-N

>  <exports>  (197) 
['/opt/xchem-fragalysis-2/maxwin/BulkDock/OUTPUTS/openbind_a71ev2a_c2_elabs_1LOUU54.sdf', '/opt/xchem-fragalysis-2/maxwin/BulkDock/OUTPUTS/openbind_a71ev2a_c2_elabs_1LSYIDY.sdf']

>  <name>  (197) 
P570276

>  <ref_pdb>  (197) 
A2339a

>  <subsites>  (197) 
None

>  <HIPPO Pose ID>  (197) 
570276

>  <ref_mols>  (197) 
A2339a

>  <HIPPO Compound ID>  (197) 
411180

>  <tags>  (197) 
openbind_a71ev2a_c2_elabs,syndirella_product,openbind_a71ev2a_c2_elabs_scored,BulkDock Fragalysis export,openbind_a71ev2a_c2_elabs_scored_top80percent,openbind_a71ev2a_c2_elabs_scored_top80percent_despaghettified,syndirella_placed

>  <smina_score_min>  (197) 
-6.196

$$$$
P570278
     RDKit          3D

 22 25  0  0  0  0  0  0  0  0999 V2000
    8.9876    8.9521   23.3514 C   0  0  0  0  0  0  0  0  0  0  0  0
    8.6301   10.1962   23.9949 N   0  0  0  0  0  0  0  0  0  0  0  0
    9.3876   11.2719   23.7423 N   0  0  0  0  0  0  0  0  0  0  0  0
    8.8582   12.2382   24.5185 C   0  0  0  0  0  0  0  0  0  0  0  0
    9.5832   13.4801   24.7504 C   0  0  0  0  0  0  0  0  0  0  0  0
    9.1158   14.4399   25.2089 O   0  0  0  0  0  0  0  0  0  0  0  0
   10.9888   13.2190   24.2266 N   0  0  0  0  0  0  0  0  0  0  0  0
   12.0835   14.0917   24.0659 C   0  0  0  0  0  0  0  0  0  0  0  0
   11.9996   14.6319   22.6578 C   0  0  0  0  0  0  0  0  0  0  0  0
   10.6680   15.2735   22.2027 C   0  0  0  0  0  0  0  0  0  0  0  0
   10.7468   14.4931   20.9657 N   0  0  0  0  0  0  0  0  0  0  0  0
   11.3149   15.3280   19.9321 C   0  0  0  0  0  0  0  0  0  0  0  0
   10.2713   15.9493   19.0739 C   0  0  0  0  0  0  0  0  0  0  0  0
   11.2919   15.0234   18.4856 C   0  0  0  0  0  0  0  0  0  0  0  0
   11.7619   13.6156   21.5447 C   0  0  0  0  0  0  0  0  0  0  0  0
    7.6950   11.8219   25.1691 C   0  0  0  0  0  0  0  0  0  0  0  0
    6.7942   12.4282   26.0563 C   0  0  0  0  0  0  0  0  0  0  0  0
    5.8709   11.6209   26.6976 C   0  0  0  0  0  0  0  0  0  0  0  0
    5.0421   12.1737   27.5893 F   0  0  0  0  0  0  0  0  0  0  0  0
    5.8292   10.2543   26.4764 C   0  0  0  0  0  0  0  0  0  0  0  0
    6.7033    9.6590   25.5646 C   0  0  0  0  0  0  0  0  0  0  0  0
    7.6347   10.4571   24.9091 C   0  0  0  0  0  0  0  0  0  0  0  0
  1  2  1  0
  2  3  1  0
  3  4  2  0
  4  5  1  0
  5  6  2  0
  5  7  1  0
  7  8  1  0
  8  9  1  0
  9 10  1  0
 10 11  1  0
 11 12  1  0
 12 13  1  0
 13 14  1  0
 11 15  1  0
  4 16  1  0
 16 17  2  0
 17 18  1  0
 18 19  1  0
 18 20  2  0
 20 21  1  0
 21 22  2  0
 22  2  1  0
 15  9  1  0
 22 16  1  0
 14 12  1  0
M  END
>  <alias>  (198) 
None

>  <rmsd(smina/fragmenstein)>  (198) 
0.868

>  <smiles>  (198) 
Cn1nc(C(=O)NCC2CN(C3CC3)C2)c2cc(F)ccc21

>  <gnina_score>  (198) 
5.824

>  <inspiration_score>  (198) 
None

>  <energy_score>  (198) 
-27.498687

>  <distance_score>  (198) 
1.310234

>  <gnina_score_min>  (198) 
5.606

>  <inchikey>  (198) 
ZBEURLTWFODRMI-UHFFFAOYSA-N

>  <exports>  (198) 
['/opt/xchem-fragalysis-2/maxwin/BulkDock/OUTPUTS/openbind_a71ev2a_c2_elabs_1LOUU54.sdf', '/opt/xchem-fragalysis-2/maxwin/BulkDock/OUTPUTS/openbind_a71ev2a_c2_elabs_1LSYIDY.sdf']

>  <name>  (198) 
P570278

>  <ref_pdb>  (198) 
A2339a

>  <subsites>  (198) 
None

>  <HIPPO Pose ID>  (198) 
570278

>  <ref_mols>  (198) 
A2339a

>  <HIPPO Compound ID>  (198) 
411187

>  <tags>  (198) 
openbind_a71ev2a_c2_elabs,syndirella_product,openbind_a71ev2a_c2_elabs_scored,BulkDock Fragalysis export,openbind_a71ev2a_c2_elabs_scored_top80percent,openbind_a71ev2a_c2_elabs_scored_top80percent_despaghettified,syndirella_placed

>  <smina_score_min>  (198) 
-6.589

$$$$
P570289
     RDKit          3D

 22 24  0  0  0  0  0  0  0  0999 V2000
    9.9712   14.6660   25.1818 C   0  0  0  0  0  0  0  0  0  0  0  0
   11.1598   14.9464   24.2572 C   0  0  0  0  0  0  0  0  0  0  0  0
   12.1434   13.7684   24.2792 C   0  0  0  0  0  0  0  0  0  0  0  0
   10.8531   15.4950   22.8067 C   0  0  1  0  0  0  0  0  0  0  0  0
   11.8014   16.4874   22.4689 O   0  0  0  0  0  0  0  0  0  0  0  0
   10.8437   14.4714   21.6885 C   0  0  0  0  0  0  0  0  0  0  0  0
   10.1551   13.3708   22.1870 N   0  0  0  0  0  0  0  0  0  0  0  0
    8.7743   13.2724   22.8280 C   0  0  0  0  0  0  0  0  0  0  0  0
    7.9524   14.0804   22.9753 O   0  0  0  0  0  0  0  0  0  0  0  0
    8.6214   11.9420   23.3788 C   0  0  0  0  0  0  0  0  0  0  0  0
    9.3958   10.9134   23.0092 N   0  0  0  0  0  0  0  0  0  0  0  0
    8.8856    9.8773   23.6955 N   0  0  0  0  0  0  0  0  0  0  0  0
    9.3980    8.5618   23.4062 C   0  0  0  0  0  0  0  0  0  0  0  0
    7.9164   10.2511   24.5990 C   0  0  0  0  0  0  0  0  0  0  0  0
    7.1015    9.5502   25.4819 C   0  0  0  0  0  0  0  0  0  0  0  0
    6.2365   10.2553   26.3228 C   0  0  0  0  0  0  0  0  0  0  0  0
    6.1877   11.6368   26.2683 C   0  0  0  0  0  0  0  0  0  0  0  0
    5.3965   12.3012   27.1195 F   0  0  0  0  0  0  0  0  0  0  0  0
    6.9394   12.3429   25.3392 C   0  0  0  0  0  0  0  0  0  0  0  0
    7.7926   11.6244   24.4772 C   0  0  0  0  0  0  0  0  0  0  0  0
   12.0221   14.4017   20.7499 C   0  0  0  0  0  0  0  0  0  0  0  0
   10.7085   14.9417   20.2673 C   0  0  0  0  0  0  0  0  0  0  0  0
  1  2  1  0
  2  3  1  0
  2  4  1  0
  4  5  1  6
  4  6  1  0
  6  7  1  0
  7  8  1  0
  8  9  2  0
  8 10  1  0
 10 11  2  0
 11 12  1  0
 12 13  1  0
 12 14  1  0
 14 15  2  0
 15 16  1  0
 16 17  2  0
 17 18  1  0
 17 19  1  0
 19 20  2  0
  6 21  1  0
 21 22  1  0
 22  6  1  0
 20 10  1  0
 20 14  1  0
M  END
>  <alias>  (199) 
None

>  <rmsd(smina/fragmenstein)>  (199) 
1.378

>  <smiles>  (199) 
CC(C)[C@@H](O)C1(NC(=O)c2nn(C)c3ccc(F)cc23)CC1

>  <gnina_score>  (199) 
5.868

>  <inspiration_score>  (199) 
None

>  <energy_score>  (199) 
-24.551868

>  <distance_score>  (199) 
0.700148

>  <gnina_score_min>  (199) 
5.575

>  <inchikey>  (199) 
QEAGRCDSCTZWBH-CQSZACIVSA-N

>  <exports>  (199) 
['/opt/xchem-fragalysis-2/maxwin/BulkDock/OUTPUTS/openbind_a71ev2a_c2_elabs_1LOUU54.sdf', '/opt/xchem-fragalysis-2/maxwin/BulkDock/OUTPUTS/openbind_a71ev2a_c2_elabs_1LSYIDY.sdf']

>  <name>  (199) 
P570289

>  <ref_pdb>  (199) 
A2339a

>  <subsites>  (199) 
None

>  <HIPPO Pose ID>  (199) 
570289

>  <ref_mols>  (199) 
A2339a

>  <HIPPO Compound ID>  (199) 
411191

>  <tags>  (199) 
openbind_a71ev2a_c2_elabs,syndirella_product,openbind_a71ev2a_c2_elabs_scored,BulkDock Fragalysis export,openbind_a71ev2a_c2_elabs_scored_top80percent,openbind_a71ev2a_c2_elabs_scored_top80percent_despaghettified,syndirella_placed

>  <smina_score_min>  (199) 
-6.115

$$$$
P570290
     RDKit          3D

 22 25  0  0  0  0  0  0  0  0999 V2000
    9.2905    8.7499   23.4707 C   0  0  0  0  0  0  0  0  0  0  0  0
    8.9071   10.0837   23.8683 N   0  0  0  0  0  0  0  0  0  0  0  0
    9.5920   11.1155   23.3522 N   0  0  0  0  0  0  0  0  0  0  0  0
    9.0947   12.1957   23.9834 C   0  0  0  0  0  0  0  0  0  0  0  0
    9.5782   13.5360   23.6551 C   0  0  0  0  0  0  0  0  0  0  0  0
    9.3128   14.4783   24.2885 O   0  0  0  0  0  0  0  0  0  0  0  0
   10.3520   13.4090   22.3362 N   0  0  0  0  0  0  0  0  0  0  0  0
   10.8739   14.4019   21.4797 C   0  0  0  0  0  0  0  0  0  0  0  0
    9.9164   14.7499   20.3739 C   0  0  2  0  0  0  0  0  0  0  0  0
   10.0940   16.0472   19.6533 C   0  0  0  0  0  0  0  0  0  0  0  0
    9.4242   17.0308   20.5836 C   0  0  0  0  0  0  0  0  0  0  0  0
    8.4878   16.1645   21.4171 C   0  0  0  0  0  0  0  0  0  0  0  0
    8.5773   14.8327   20.8884 O   0  0  0  0  0  0  0  0  0  0  0  0
   11.9243   15.3273   22.0063 C   0  0  0  0  0  0  0  0  0  0  0  0
   12.3037   14.2466   21.0571 C   0  0  0  0  0  0  0  0  0  0  0  0
    8.0407   11.8542   24.8590 C   0  0  0  0  0  0  0  0  0  0  0  0
    7.1606   12.5653   25.6952 C   0  0  0  0  0  0  0  0  0  0  0  0
    6.2210   11.8503   26.4300 C   0  0  0  0  0  0  0  0  0  0  0  0
    5.4091   12.5062   27.2683 F   0  0  0  0  0  0  0  0  0  0  0  0
    6.1238   10.4711   26.3358 C   0  0  0  0  0  0  0  0  0  0  0  0
    6.9782    9.7611   25.4912 C   0  0  0  0  0  0  0  0  0  0  0  0
    7.9363   10.4694   24.7624 C   0  0  0  0  0  0  0  0  0  0  0  0
  1  2  1  0
  2  3  1  0
  3  4  2  0
  4  5  1  0
  5  6  2  0
  5  7  1  0
  7  8  1  0
  9  8  1  1
  9 10  1  0
 10 11  1  0
 11 12  1  0
 12 13  1  0
  8 14  1  0
 14 15  1  0
  4 16  1  0
 16 17  2  0
 17 18  1  0
 18 19  1  0
 18 20  2  0
 20 21  1  0
 21 22  2  0
 22  2  1  0
 15  8  1  0
 22 16  1  0
 13  9  1  0
M  END
>  <alias>  (200) 
None

>  <rmsd(smina/fragmenstein)>  (200) 
0.34

>  <smiles>  (200) 
Cn1nc(C(=O)NC2([C@@H]3CCCO3)CC2)c2cc(F)ccc21

>  <gnina_score>  (200) 
5.847

>  <inspiration_score>  (200) 
None

>  <energy_score>  (200) 
-27.106519

>  <distance_score>  (200) 
0.635723

>  <gnina_score_min>  (200) 
5.942

>  <inchikey>  (200) 
NSSNHKDNJDBBFX-ZDUSSCGKSA-N

>  <exports>  (200) 
['/opt/xchem-fragalysis-2/maxwin/BulkDock/OUTPUTS/openbind_a71ev2a_c2_elabs_1LOUU54.sdf', '/opt/xchem-fragalysis-2/maxwin/BulkDock/OUTPUTS/openbind_a71ev2a_c2_elabs_1LSYIDY.sdf']

>  <name>  (200) 
P570290

>  <ref_pdb>  (200) 
A2339a

>  <subsites>  (200) 
None

>  <HIPPO Pose ID>  (200) 
570290

>  <ref_mols>  (200) 
A2339a

>  <HIPPO Compound ID>  (200) 
411192

>  <tags>  (200) 
openbind_a71ev2a_c2_elabs,syndirella_product,openbind_a71ev2a_c2_elabs_scored,BulkDock Fragalysis export,openbind_a71ev2a_c2_elabs_scored_top80percent,openbind_a71ev2a_c2_elabs_scored_top80percent_despaghettified,syndirella_placed

>  <smina_score_min>  (200) 
-7.301

$$$$
P570298
     RDKit          3D

 22 26  0  0  0  0  0  0  0  0999 V2000
    9.3626    9.3177   23.3143 C   0  0  0  0  0  0  0  0  0  0  0  0
    8.8412   10.5199   23.9353 N   0  0  0  0  0  0  0  0  0  0  0  0
    9.4072   11.7116   23.6453 N   0  0  0  0  0  0  0  0  0  0  0  0
    8.7454   12.5939   24.4292 C   0  0  0  0  0  0  0  0  0  0  0  0
    9.0861   14.0246   24.4585 C   0  0  0  0  0  0  0  0  0  0  0  0
    8.5826   14.7911   25.1719 O   0  0  0  0  0  0  0  0  0  0  0  0
   10.0952   14.2326   23.3407 N   0  0  0  0  0  0  0  0  0  0  0  0
   10.6263   15.4101   22.8009 C   0  0  1  0  0  0  0  0  0  0  0  0
   11.2925   15.2552   21.4673 C   0  0  2  0  0  0  0  0  0  0  0  0
   11.3950   14.0267   20.6875 C   0  0  0  0  0  0  0  0  0  0  0  0
   12.3925   14.8085   19.8596 C   0  0  0  0  0  0  0  0  0  0  0  0
   12.6716   15.6020   21.1513 C   0  0  0  0  0  0  0  0  0  0  0  0
   10.0690   16.0038   21.5791 C   0  0  2  0  0  0  0  0  0  0  0  0
    9.4280   17.1168   20.9042 C   0  0  0  0  0  0  0  0  0  0  0  0
    8.7227   15.7754   21.0342 C   0  0  0  0  0  0  0  0  0  0  0  0
    7.7192   11.9737   25.1601 C   0  0  0  0  0  0  0  0  0  0  0  0
    6.7449   12.4222   26.0634 C   0  0  0  0  0  0  0  0  0  0  0  0
    5.9159   11.4817   26.6523 C   0  0  0  0  0  0  0  0  0  0  0  0
    5.0102   11.8973   27.5439 F   0  0  0  0  0  0  0  0  0  0  0  0
    6.0299   10.1301   26.3627 C   0  0  0  0  0  0  0  0  0  0  0  0
    6.9898    9.6815   25.4517 C   0  0  0  0  0  0  0  0  0  0  0  0
    7.8234   10.6233   24.8527 C   0  0  0  0  0  0  0  0  0  0  0  0
  1  2  1  0
  2  3  1  0
  3  4  2  0
  4  5  1  0
  5  6  2  0
  5  7  1  0
  8  7  1  6
  8  9  1  0
  9 10  1  6
 10 11  1  0
 11 12  1  0
  9 13  1  0
 13 14  1  1
 14 15  1  0
  4 16  1  0
 16 17  2  0
 17 18  1  0
 18 19  1  0
 18 20  2  0
 20 21  1  0
 21 22  2  0
 22  2  1  0
 13  8  1  0
 22 16  1  0
 12  9  1  0
 15 13  1  0
M  END
>  <alias>  (201) 
None

>  <rmsd(smina/fragmenstein)>  (201) 
0.262

>  <smiles>  (201) 
Cn1nc(C(=O)N[C@H]2[C@]3(CCC3)[C@@]23CC3)c2cc(F)ccc21

>  <gnina_score>  (201) 
5.798

>  <inspiration_score>  (201) 
None

>  <energy_score>  (201) 
-25.219659

>  <distance_score>  (201) 
1.034372

>  <gnina_score_min>  (201) 
5.743

>  <inchikey>  (201) 
CJZAXDURQMTMPP-HNNXBMFYSA-N

>  <exports>  (201) 
['/opt/xchem-fragalysis-2/maxwin/BulkDock/OUTPUTS/openbind_a71ev2a_c2_elabs_1LOUU54.sdf', '/opt/xchem-fragalysis-2/maxwin/BulkDock/OUTPUTS/openbind_a71ev2a_c2_elabs_1LSYIDY.sdf']

>  <name>  (201) 
P570298

>  <ref_pdb>  (201) 
A2339a

>  <subsites>  (201) 
None

>  <HIPPO Pose ID>  (201) 
570298

>  <ref_mols>  (201) 
A2339a

>  <HIPPO Compound ID>  (201) 
411199

>  <tags>  (201) 
openbind_a71ev2a_c2_elabs,syndirella_product,openbind_a71ev2a_c2_elabs_scored,BulkDock Fragalysis export,openbind_a71ev2a_c2_elabs_scored_top80percent,openbind_a71ev2a_c2_elabs_scored_top80percent_despaghettified,syndirella_placed

>  <smina_score_min>  (201) 
-5.976

$$$$
P570299
     RDKit          3D

 22 25  0  0  0  0  0  0  0  0999 V2000
    9.3129    8.3840   23.4422 C   0  0  0  0  0  0  0  0  0  0  0  0
    8.8476    9.7094   23.7446 N   0  0  0  0  0  0  0  0  0  0  0  0
    9.4233   10.7295   23.0884 N   0  0  0  0  0  0  0  0  0  0  0  0
    8.6254   11.7497   23.3978 C   0  0  0  0  0  0  0  0  0  0  0  0
    8.7794   13.0768   22.9114 C   0  0  0  0  0  0  0  0  0  0  0  0
    7.8954   13.7338   22.5547 O   0  0  0  0  0  0  0  0  0  0  0  0
   10.2402   13.4056   23.0715 N   0  0  0  0  0  0  0  0  0  0  0  0
   10.9090   14.5969   22.9271 C   0  0  0  0  0  0  0  0  0  0  0  0
   10.6804   15.1949   24.3877 C   0  0  0  0  0  0  0  0  0  0  0  0
    9.3646   15.3760   24.9262 C   0  0  0  0  0  0  0  0  0  0  0  0
    9.5441   15.4692   26.2799 C   0  0  0  0  0  0  0  0  0  0  0  0
   10.8610   15.3325   26.5572 O   0  0  0  0  0  0  0  0  0  0  0  0
   11.5531   15.0796   25.3893 N   0  0  0  0  0  0  0  0  0  0  0  0
   10.7456   15.4398   21.6931 C   0  0  0  0  0  0  0  0  0  0  0  0
   12.0625   14.7916   22.0061 C   0  0  0  0  0  0  0  0  0  0  0  0
    7.7915   11.4877   24.4979 C   0  0  0  0  0  0  0  0  0  0  0  0
    6.9579   12.2565   25.3350 C   0  0  0  0  0  0  0  0  0  0  0  0
    6.1825   11.5977   26.2766 C   0  0  0  0  0  0  0  0  0  0  0  0
    5.4116   12.3066   27.1105 F   0  0  0  0  0  0  0  0  0  0  0  0
    6.1890   10.2187   26.3564 C   0  0  0  0  0  0  0  0  0  0  0  0
    7.0356    9.4733   25.5297 C   0  0  0  0  0  0  0  0  0  0  0  0
    7.8836   10.1195   24.6414 C   0  0  0  0  0  0  0  0  0  0  0  0
  1  2  1  0
  2  3  1  0
  3  4  2  0
  4  5  1  0
  5  6  2  0
  5  7  1  0
  7  8  1  0
  8  9  1  0
  9 10  1  0
 10 11  2  0
 11 12  1  0
 12 13  1  0
  8 14  1  0
 14 15  1  0
  4 16  1  0
 16 17  2  0
 17 18  1  0
 18 19  1  0
 18 20  2  0
 20 21  1  0
 21 22  2  0
 22  2  1  0
 15  8  1  0
 22 16  1  0
 13  9  2  0
M  END
>  <alias>  (202) 
None

>  <rmsd(smina/fragmenstein)>  (202) 
0.473

>  <smiles>  (202) 
Cn1nc(C(=O)NC2(c3ccon3)CC2)c2cc(F)ccc21

>  <gnina_score>  (202) 
5.839

>  <inspiration_score>  (202) 
None

>  <energy_score>  (202) 
-18.978167

>  <distance_score>  (202) 
0.968976

>  <gnina_score_min>  (202) 
5.676

>  <inchikey>  (202) 
CBIZRRWEOKLHIX-UHFFFAOYSA-N

>  <exports>  (202) 
['/opt/xchem-fragalysis-2/maxwin/BulkDock/OUTPUTS/openbind_a71ev2a_c2_elabs_1LOUU54.sdf', '/opt/xchem-fragalysis-2/maxwin/BulkDock/OUTPUTS/openbind_a71ev2a_c2_elabs_1LSYIDY.sdf']

>  <name>  (202) 
P570299

>  <ref_pdb>  (202) 
A2339a

>  <subsites>  (202) 
None

>  <HIPPO Pose ID>  (202) 
570299

>  <ref_mols>  (202) 
A2339a

>  <HIPPO Compound ID>  (202) 
411201

>  <tags>  (202) 
openbind_a71ev2a_c2_elabs,syndirella_product,openbind_a71ev2a_c2_elabs_scored,BulkDock Fragalysis export,openbind_a71ev2a_c2_elabs_scored_top80percent,openbind_a71ev2a_c2_elabs_scored_top80percent_despaghettified,syndirella_placed

>  <smina_score_min>  (202) 
-5.001

$$$$
P570301
     RDKit          3D

 22 25  0  0  0  0  0  0  0  0999 V2000
    9.5451    8.8461   23.0966 C   0  0  0  0  0  0  0  0  0  0  0  0
    9.2195   10.1706   23.5730 N   0  0  0  0  0  0  0  0  0  0  0  0
    9.9273   11.2126   23.1007 N   0  0  0  0  0  0  0  0  0  0  0  0
    9.4359   12.2781   23.7536 C   0  0  0  0  0  0  0  0  0  0  0  0
    9.9773   13.6248   23.5286 C   0  0  0  0  0  0  0  0  0  0  0  0
    9.8015   14.4783   24.3064 O   0  0  0  0  0  0  0  0  0  0  0  0
   10.6493   13.6599   22.1397 N   0  0  0  0  0  0  0  0  0  0  0  0
   11.1511   14.7483   21.3896 C   0  0  0  0  0  0  0  0  0  0  0  0
   10.1765   15.9051   21.3677 C   0  0  1  0  0  0  0  0  0  0  0  0
    9.5992   16.5280   20.1354 C   0  0  0  0  0  0  0  0  0  0  0  0
    8.7444   15.7205   21.0402 C   0  0  0  0  0  0  0  0  0  0  0  0
    7.7904   16.2894   21.8461 F   0  0  0  0  0  0  0  0  0  0  0  0
    8.2718   14.4828   20.6628 F   0  0  0  0  0  0  0  0  0  0  0  0
   12.0982   14.4897   20.2438 C   0  0  0  0  0  0  0  0  0  0  0  0
   12.6068   15.1002   21.5029 C   0  0  0  0  0  0  0  0  0  0  0  0
    8.3505   11.9163   24.5987 C   0  0  0  0  0  0  0  0  0  0  0  0
    7.4495   12.6011   25.4386 C   0  0  0  0  0  0  0  0  0  0  0  0
    6.5095   11.8614   26.1550 C   0  0  0  0  0  0  0  0  0  0  0  0
    5.6789   12.4909   26.9970 F   0  0  0  0  0  0  0  0  0  0  0  0
    6.4376   10.4797   26.0483 C   0  0  0  0  0  0  0  0  0  0  0  0
    7.3131    9.7919   25.2064 C   0  0  0  0  0  0  0  0  0  0  0  0
    8.2535   10.5320   24.4817 C   0  0  0  0  0  0  0  0  0  0  0  0
  1  2  1  0
  2  3  1  0
  3  4  2  0
  4  5  1  0
  5  6  2  0
  5  7  1  0
  7  8  1  0
  9  8  1  6
  9 10  1  0
 10 11  1  0
 11 12  1  0
 11 13  1  0
  8 14  1  0
 14 15  1  0
  4 16  1  0
 16 17  2  0
 17 18  1  0
 18 19  1  0
 18 20  2  0
 20 21  1  0
 21 22  2  0
 22  2  1  0
 15  8  1  0
 22 16  1  0
 11  9  1  0
M  END
>  <alias>  (203) 
None

>  <rmsd(smina/fragmenstein)>  (203) 
0.357

>  <smiles>  (203) 
Cn1nc(C(=O)NC2([C@H]3CC3(F)F)CC2)c2cc(F)ccc21

>  <gnina_score>  (203) 
5.948

>  <inspiration_score>  (203) 
None

>  <energy_score>  (203) 
-24.449277

>  <distance_score>  (203) 
0.506097

>  <gnina_score_min>  (203) 
5.969

>  <inchikey>  (203) 
CSAVDGRZCAAOGH-LLVKDONJSA-N

>  <exports>  (203) 
['/opt/xchem-fragalysis-2/maxwin/BulkDock/OUTPUTS/openbind_a71ev2a_c2_elabs_1LOUU54.sdf', '/opt/xchem-fragalysis-2/maxwin/BulkDock/OUTPUTS/openbind_a71ev2a_c2_elabs_1LSYIDY.sdf']

>  <name>  (203) 
P570301

>  <ref_pdb>  (203) 
A2339a

>  <subsites>  (203) 
None

>  <HIPPO Pose ID>  (203) 
570301

>  <ref_mols>  (203) 
A2339a

>  <HIPPO Compound ID>  (203) 
411203

>  <tags>  (203) 
openbind_a71ev2a_c2_elabs,syndirella_product,openbind_a71ev2a_c2_elabs_scored,BulkDock Fragalysis export,openbind_a71ev2a_c2_elabs_scored_top80percent,openbind_a71ev2a_c2_elabs_scored_top80percent_despaghettified,syndirella_placed

>  <smina_score_min>  (203) 
-7.445

$$$$
P570302
     RDKit          3D

 22 24  0  0  0  0  0  0  0  0999 V2000
    9.4837    8.9805   23.2727 C   0  0  0  0  0  0  0  0  0  0  0  0
    8.9662   10.2774   23.6532 N   0  0  0  0  0  0  0  0  0  0  0  0
    9.4657   11.3733   23.0495 N   0  0  0  0  0  0  0  0  0  0  0  0
    8.7993   12.4020   23.6077 C   0  0  0  0  0  0  0  0  0  0  0  0
    9.0857   13.7903   23.2122 C   0  0  0  0  0  0  0  0  0  0  0  0
    8.6544   14.6913   23.8145 O   0  0  0  0  0  0  0  0  0  0  0  0
   10.0677   13.7612   22.0210 N   0  0  0  0  0  0  0  0  0  0  0  0
   10.7815   14.8040   21.3981 C   0  0  0  0  0  0  0  0  0  0  0  0
   11.8113   15.3902   22.3205 C   0  0  0  0  0  0  0  0  0  0  0  0
   12.7720   14.4208   22.7342 O   0  0  0  0  0  0  0  0  0  0  0  0
   12.3451   13.5357   23.7440 C   0  0  0  0  0  0  0  0  0  0  0  0
   11.6796   14.2169   24.7097 F   0  0  0  0  0  0  0  0  0  0  0  0
   13.4548   13.0289   24.3477 F   0  0  0  0  0  0  0  0  0  0  0  0
   11.0960   14.8349   19.9289 C   0  0  0  0  0  0  0  0  0  0  0  0
   10.0339   15.7355   20.4806 C   0  0  0  0  0  0  0  0  0  0  0  0
    7.9012   11.9572   24.6085 C   0  0  0  0  0  0  0  0  0  0  0  0
    7.0123   12.5754   25.5071 C   0  0  0  0  0  0  0  0  0  0  0  0
    6.2276   11.7687   26.3259 C   0  0  0  0  0  0  0  0  0  0  0  0
    5.3974   12.3417   27.2061 F   0  0  0  0  0  0  0  0  0  0  0  0
    6.2917   10.3846   26.2595 C   0  0  0  0  0  0  0  0  0  0  0  0
    7.1844    9.7619   25.3848 C   0  0  0  0  0  0  0  0  0  0  0  0
    7.9954   10.5680   24.5817 C   0  0  0  0  0  0  0  0  0  0  0  0
  1  2  1  0
  2  3  1  0
  3  4  2  0
  4  5  1  0
  5  6  2  0
  5  7  1  0
  7  8  1  0
  8  9  1  0
  9 10  1  0
 10 11  1  0
 11 12  1  0
 11 13  1  0
  8 14  1  0
 14 15  1  0
  4 16  1  0
 16 17  2  0
 17 18  1  0
 18 19  1  0
 18 20  2  0
 20 21  1  0
 21 22  2  0
 22  2  1  0
 15  8  1  0
 22 16  1  0
M  END
>  <alias>  (204) 
None

>  <rmsd(smina/fragmenstein)>  (204) 
0.701

>  <smiles>  (204) 
Cn1nc(C(=O)NC2(COC(F)F)CC2)c2cc(F)ccc21

>  <gnina_score>  (204) 
5.908

>  <inspiration_score>  (204) 
None

>  <energy_score>  (204) 
-12.185293

>  <distance_score>  (204) 
0.573358

>  <gnina_score_min>  (204) 
5.649

>  <inchikey>  (204) 
WNCMYVYBUOCYJX-UHFFFAOYSA-N

>  <exports>  (204) 
['/opt/xchem-fragalysis-2/maxwin/BulkDock/OUTPUTS/openbind_a71ev2a_c2_elabs_1LOUU54.sdf', '/opt/xchem-fragalysis-2/maxwin/BulkDock/OUTPUTS/openbind_a71ev2a_c2_elabs_1LSYIDY.sdf']

>  <name>  (204) 
P570302

>  <ref_pdb>  (204) 
A2339a

>  <subsites>  (204) 
None

>  <HIPPO Pose ID>  (204) 
570302

>  <ref_mols>  (204) 
A2339a

>  <HIPPO Compound ID>  (204) 
411204

>  <tags>  (204) 
openbind_a71ev2a_c2_elabs,syndirella_product,openbind_a71ev2a_c2_elabs_scored,BulkDock Fragalysis export,openbind_a71ev2a_c2_elabs_scored_top80percent,openbind_a71ev2a_c2_elabs_scored_top80percent_despaghettified,syndirella_placed

>  <smina_score_min>  (204) 
-7.216

$$$$
P570303
     RDKit          3D

 22 25  0  0  0  0  0  0  0  0999 V2000
    9.3010    9.0860   23.4302 C   0  0  0  0  0  0  0  0  0  0  0  0
    8.6590   10.3277   23.8061 N   0  0  0  0  0  0  0  0  0  0  0  0
    9.0253   11.4604   23.1765 N   0  0  0  0  0  0  0  0  0  0  0  0
    8.2741   12.4231   23.7556 C   0  0  0  0  0  0  0  0  0  0  0  0
    8.4879   13.8334   23.4415 C   0  0  0  0  0  0  0  0  0  0  0  0
    7.9787   14.6943   24.0349 O   0  0  0  0  0  0  0  0  0  0  0  0
    9.5286   13.8802   22.3246 N   0  0  0  0  0  0  0  0  0  0  0  0
   10.2209   14.9589   21.7756 C   0  0  0  0  0  0  0  0  0  0  0  0
   11.3514   15.0999   22.8609 C   0  0  0  0  0  0  0  0  0  0  0  0
   11.0235   15.5032   24.0770 N   0  0  0  0  0  0  0  0  0  0  0  0
   11.4186   14.5460   24.9911 C   0  0  0  0  0  0  0  0  0  0  0  0
   12.2378   13.5578   24.4899 C   0  0  0  0  0  0  0  0  0  0  0  0
   12.5131   13.8374   22.8341 S   0  0  0  0  0  0  0  0  0  0  0  0
    9.6589   16.0890   21.0049 C   0  0  0  0  0  0  0  0  0  0  0  0
   10.5835   15.1108   20.3329 C   0  0  0  0  0  0  0  0  0  0  0  0
    7.4898   11.9117   24.8040 C   0  0  0  0  0  0  0  0  0  0  0  0
    6.6306   12.4703   25.7632 C   0  0  0  0  0  0  0  0  0  0  0  0
    5.9434   11.6109   26.6061 C   0  0  0  0  0  0  0  0  0  0  0  0
    5.1341   12.1282   27.5367 F   0  0  0  0  0  0  0  0  0  0  0  0
    6.0783   10.2350   26.5049 C   0  0  0  0  0  0  0  0  0  0  0  0
    6.9652    9.6793   25.5796 C   0  0  0  0  0  0  0  0  0  0  0  0
    7.6947   10.5377   24.7618 C   0  0  0  0  0  0  0  0  0  0  0  0
  1  2  1  0
  2  3  1  0
  3  4  2  0
  4  5  1  0
  5  6  2  0
  5  7  1  0
  7  8  1  0
  8  9  1  0
  9 10  2  0
 10 11  1  0
 11 12  2  0
 12 13  1  0
  8 14  1  0
 14 15  1  0
  4 16  1  0
 16 17  2  0
 17 18  1  0
 18 19  1  0
 18 20  2  0
 20 21  1  0
 21 22  2  0
 22  2  1  0
 15  8  1  0
 22 16  1  0
 13  9  1  0
M  END
>  <alias>  (205) 
None

>  <rmsd(smina/fragmenstein)>  (205) 
0.746

>  <smiles>  (205) 
Cn1nc(C(=O)NC2(c3nccs3)CC2)c2cc(F)ccc21

>  <gnina_score>  (205) 
6.088

>  <inspiration_score>  (205) 
None

>  <energy_score>  (205) 
-2.972004

>  <distance_score>  (205) 
0.984554

>  <gnina_score_min>  (205) 
5.789

>  <inchikey>  (205) 
UKHHURGPZNBHGS-UHFFFAOYSA-N

>  <exports>  (205) 
['/opt/xchem-fragalysis-2/maxwin/BulkDock/OUTPUTS/openbind_a71ev2a_c2_elabs_1LOUU54.sdf', '/opt/xchem-fragalysis-2/maxwin/BulkDock/OUTPUTS/openbind_a71ev2a_c2_elabs_1LSYIDY.sdf']

>  <name>  (205) 
P570303

>  <ref_pdb>  (205) 
A2339a

>  <subsites>  (205) 
None

>  <HIPPO Pose ID>  (205) 
570303

>  <ref_mols>  (205) 
A2339a

>  <HIPPO Compound ID>  (205) 
411209

>  <tags>  (205) 
openbind_a71ev2a_c2_elabs,syndirella_product,openbind_a71ev2a_c2_elabs_scored,BulkDock Fragalysis export,openbind_a71ev2a_c2_elabs_scored_top80percent,openbind_a71ev2a_c2_elabs_scored_top80percent_despaghettified,syndirella_placed

>  <smina_score_min>  (205) 
-6.109

$$$$
P570304
     RDKit          3D

 22 25  0  0  0  0  0  0  0  0999 V2000
    9.2839    9.1099   23.4157 C   0  0  0  0  0  0  0  0  0  0  0  0
    8.6378   10.3201   23.8797 N   0  0  0  0  0  0  0  0  0  0  0  0
    9.0263   11.5010   23.3600 N   0  0  0  0  0  0  0  0  0  0  0  0
    8.2978   12.4106   24.0407 C   0  0  0  0  0  0  0  0  0  0  0  0
    8.5497   13.8346   23.9205 C   0  0  0  0  0  0  0  0  0  0  0  0
    8.0936   14.6161   24.6493 O   0  0  0  0  0  0  0  0  0  0  0  0
    9.5464   14.0083   22.7842 N   0  0  0  0  0  0  0  0  0  0  0  0
   10.2486   15.1217   22.3691 C   0  0  2  0  0  0  0  0  0  0  0  0
   11.1550   15.4752   23.4914 C   0  0  0  0  0  0  0  0  0  0  0  0
    9.8010   16.2471   21.5082 C   0  0  0  0  0  0  0  0  0  0  0  0
   10.7662   15.2355   20.9682 C   0  0  0  0  0  0  0  0  0  0  0  0
   10.2134   14.6670   19.7256 C   0  0  0  0  0  0  0  0  0  0  0  0
   11.3670   14.7551   18.7504 C   0  0  0  0  0  0  0  0  0  0  0  0
   12.5431   14.4573   19.6417 C   0  0  0  0  0  0  0  0  0  0  0  0
   12.2640   15.2598   20.8889 C   0  0  0  0  0  0  0  0  0  0  0  0
    7.4469   11.8231   24.9801 C   0  0  0  0  0  0  0  0  0  0  0  0
    6.5502   12.3159   25.9393 C   0  0  0  0  0  0  0  0  0  0  0  0
    5.8417   11.4041   26.6985 C   0  0  0  0  0  0  0  0  0  0  0  0
    4.9997   11.8617   27.6302 F   0  0  0  0  0  0  0  0  0  0  0  0
    5.9995   10.0403   26.5174 C   0  0  0  0  0  0  0  0  0  0  0  0
    6.9162    9.5542   25.5796 C   0  0  0  0  0  0  0  0  0  0  0  0
    7.6531   10.4609   24.8299 C   0  0  0  0  0  0  0  0  0  0  0  0
  1  2  1  0
  2  3  1  0
  3  4  2  0
  4  5  1  0
  5  6  2  0
  5  7  1  0
  8  7  1  0
  8  9  1  1
  8 10  1  0
 10 11  1  0
 11 12  1  0
 12 13  1  0
 13 14  1  0
 14 15  1  0
  4 16  1  0
 16 17  2  0
 17 18  1  0
 18 19  1  0
 18 20  2  0
 20 21  1  0
 21 22  2  0
 22  2  1  0
 11  8  1  0
 22 16  1  0
 15 11  1  0
M  END
>  <alias>  (206) 
None

>  <rmsd(smina/fragmenstein)>  (206) 
0.415

>  <smiles>  (206) 
Cn1nc(C(=O)N[C@]2(C)CC23CCCC3)c2cc(F)ccc21

>  <gnina_score>  (206) 
5.735

>  <inspiration_score>  (206) 
None

>  <energy_score>  (206) 
-5.177665

>  <distance_score>  (206) 
1.07488

>  <gnina_score_min>  (206) 
5.778

>  <inchikey>  (206) 
NUVCNAXKMWKYJO-MRXNPFEDSA-N

>  <exports>  (206) 
['/opt/xchem-fragalysis-2/maxwin/BulkDock/OUTPUTS/openbind_a71ev2a_c2_elabs_1LOUU54.sdf', '/opt/xchem-fragalysis-2/maxwin/BulkDock/OUTPUTS/openbind_a71ev2a_c2_elabs_1LSYIDY.sdf']

>  <name>  (206) 
P570304

>  <ref_pdb>  (206) 
A2339a

>  <subsites>  (206) 
None

>  <HIPPO Pose ID>  (206) 
570304

>  <ref_mols>  (206) 
A2339a

>  <HIPPO Compound ID>  (206) 
411210

>  <tags>  (206) 
openbind_a71ev2a_c2_elabs,syndirella_product,openbind_a71ev2a_c2_elabs_scored,BulkDock Fragalysis export,openbind_a71ev2a_c2_elabs_scored_top80percent,openbind_a71ev2a_c2_elabs_scored_top80percent_despaghettified,syndirella_placed

>  <smina_score_min>  (206) 
-5.986

$$$$
P570306
     RDKit          3D

 22 25  0  0  0  0  0  0  0  0999 V2000
    9.2202    8.5977   23.5010 C   0  0  0  0  0  0  0  0  0  0  0  0
    8.7270    9.9053   23.8554 N   0  0  0  0  0  0  0  0  0  0  0  0
    9.2969   10.9698   23.2681 N   0  0  0  0  0  0  0  0  0  0  0  0
    8.5810   12.0004   23.7369 C   0  0  0  0  0  0  0  0  0  0  0  0
    8.8722   13.3626   23.3932 C   0  0  0  0  0  0  0  0  0  0  0  0
    8.1089   14.2161   23.5877 O   0  0  0  0  0  0  0  0  0  0  0  0
   10.3043   13.4161   22.8762 N   0  0  0  0  0  0  0  0  0  0  0  0
   11.1137   14.4969   22.5858 C   0  0  1  0  0  0  0  0  0  0  0  0
   11.1283   15.3358   23.8202 C   0  0  0  0  0  0  0  0  0  0  0  0
   12.3147   14.5625   21.7118 C   0  0  0  0  0  0  0  0  0  0  0  0
   11.0161   15.1297   21.2170 C   0  0  1  0  0  0  0  0  0  0  0  0
   10.4852   14.4777   20.0076 C   0  0  0  0  0  0  0  0  0  0  0  0
    9.5558   15.5159   19.4704 C   0  0  0  0  0  0  0  0  0  0  0  0
   10.1320   16.7640   19.8268 O   0  0  0  0  0  0  0  0  0  0  0  0
   10.5925   16.5500   21.1605 C   0  0  0  0  0  0  0  0  0  0  0  0
    7.6706   11.6321   24.7370 C   0  0  0  0  0  0  0  0  0  0  0  0
    6.8131   12.3245   25.6125 C   0  0  0  0  0  0  0  0  0  0  0  0
    6.0180   11.5881   26.4748 C   0  0  0  0  0  0  0  0  0  0  0  0
    5.2248   12.2277   27.3415 F   0  0  0  0  0  0  0  0  0  0  0  0
    6.0393   10.2058   26.4577 C   0  0  0  0  0  0  0  0  0  0  0  0
    6.9012    9.5286   25.5910 C   0  0  0  0  0  0  0  0  0  0  0  0
    7.7477   10.2516   24.7607 C   0  0  0  0  0  0  0  0  0  0  0  0
  1  2  1  0
  2  3  1  0
  3  4  2  0
  4  5  1  0
  5  6  2  0
  5  7  1  0
  8  7  1  0
  8  9  1  1
  8 10  1  0
 11 10  1  6
 11 12  1  0
 12 13  1  0
 13 14  1  0
 14 15  1  0
  4 16  1  0
 16 17  2  0
 17 18  1  0
 18 19  1  0
 18 20  2  0
 20 21  1  0
 21 22  2  0
 22  2  1  0
 11  8  1  0
 22 16  1  0
 15 11  1  0
M  END
>  <alias>  (207) 
None

>  <rmsd(smina/fragmenstein)>  (207) 
1.017

>  <smiles>  (207) 
Cn1nc(C(=O)N[C@@]2(C)C[C@@]23CCOC3)c2cc(F)ccc21

>  <gnina_score>  (207) 
5.798

>  <inspiration_score>  (207) 
None

>  <energy_score>  (207) 
-5.82998

>  <distance_score>  (207) 
0.787202

>  <gnina_score_min>  (207) 
5.838

>  <inchikey>  (207) 
MBVKVOMNKVCSPZ-JKSUJKDBSA-N

>  <exports>  (207) 
['/opt/xchem-fragalysis-2/maxwin/BulkDock/OUTPUTS/openbind_a71ev2a_c2_elabs_1LOUU54.sdf', '/opt/xchem-fragalysis-2/maxwin/BulkDock/OUTPUTS/openbind_a71ev2a_c2_elabs_1LSYIDY.sdf']

>  <name>  (207) 
P570306

>  <ref_pdb>  (207) 
A2339a

>  <subsites>  (207) 
None

>  <HIPPO Pose ID>  (207) 
570306

>  <ref_mols>  (207) 
A2339a

>  <HIPPO Compound ID>  (207) 
341137

>  <tags>  (207) 
openbind_a71ev2a_c2_elabs,syndirella_product,openbind_a71ev2a_c2_elabs_scored,BulkDock Fragalysis export,openbind_a71ev2a_c2_elabs_scored_top80percent,openbind_a71ev2a_c2_elabs_scored_top80percent_despaghettified,syndirella_placed

>  <smina_score_min>  (207) 
-6.241

$$$$
P570309
     RDKit          3D

 22 24  0  0  0  0  0  0  0  0999 V2000
   10.6211   14.9673   25.6977 C   0  0  0  0  0  0  0  0  0  0  0  0
   11.3306   14.8498   24.5659 C   0  0  0  0  0  0  0  0  0  0  0  0
   10.9738   15.5597   23.2709 C   0  0  0  0  0  0  0  0  0  0  0  0
   10.9396   14.7322   22.0126 C   0  0  2  0  0  0  0  0  0  0  0  0
   10.2535   13.5812   22.3978 N   0  0  0  0  0  0  0  0  0  0  0  0
    8.9098   13.4171   23.1137 C   0  0  0  0  0  0  0  0  0  0  0  0
    8.1207   14.2121   23.4290 O   0  0  0  0  0  0  0  0  0  0  0  0
    8.7185   12.0387   23.5006 C   0  0  0  0  0  0  0  0  0  0  0  0
    9.4606   11.0248   23.0348 N   0  0  0  0  0  0  0  0  0  0  0  0
    8.9546    9.9498   23.6678 N   0  0  0  0  0  0  0  0  0  0  0  0
    9.4953    8.6538   23.3400 C   0  0  0  0  0  0  0  0  0  0  0  0
    7.9713   10.2663   24.5772 C   0  0  0  0  0  0  0  0  0  0  0  0
    7.1573    9.5110   25.4150 C   0  0  0  0  0  0  0  0  0  0  0  0
    6.2649   10.1599   26.2735 C   0  0  0  0  0  0  0  0  0  0  0  0
    6.2017   11.5416   26.2934 C   0  0  0  0  0  0  0  0  0  0  0  0
    5.3881   12.1538   27.1627 F   0  0  0  0  0  0  0  0  0  0  0  0
    6.9742   12.3035   25.4294 C   0  0  0  0  0  0  0  0  0  0  0  0
    7.8487   11.6430   24.5416 C   0  0  0  0  0  0  0  0  0  0  0  0
   12.0319   14.9398   21.0228 C   0  0  0  0  0  0  0  0  0  0  0  0
   10.6340   15.4494   20.7041 C   0  0  0  0  0  0  0  0  0  0  0  0
    9.9491   14.7532   19.6125 C   0  0  0  0  0  0  0  0  0  0  0  0
   10.1600   16.8689   20.7970 C   0  0  0  0  0  0  0  0  0  0  0  0
  1  2  2  0
  2  3  1  0
  4  3  1  1
  4  5  1  0
  5  6  1  0
  6  7  2  0
  6  8  1  0
  8  9  2  0
  9 10  1  0
 10 11  1  0
 10 12  1  0
 12 13  2  0
 13 14  1  0
 14 15  2  0
 15 16  1  0
 15 17  1  0
 17 18  2  0
  4 19  1  0
 19 20  1  0
 20 21  1  0
 20 22  1  0
 20  4  1  0
 18  8  1  0
 18 12  1  0
M  END
>  <alias>  (208) 
None

>  <rmsd(smina/fragmenstein)>  (208) 
0.315

>  <smiles>  (208) 
C=CC[C@]1(NC(=O)c2nn(C)c3ccc(F)cc23)CC1(C)C

>  <gnina_score>  (208) 
6.112

>  <inspiration_score>  (208) 
None

>  <energy_score>  (208) 
-8.181156

>  <distance_score>  (208) 
0.576205

>  <gnina_score_min>  (208) 
6.116

>  <inchikey>  (208) 
PALKLBFPKUZMER-KRWDZBQOSA-N

>  <exports>  (208) 
['/opt/xchem-fragalysis-2/maxwin/BulkDock/OUTPUTS/openbind_a71ev2a_c2_elabs_1LOUU54.sdf', '/opt/xchem-fragalysis-2/maxwin/BulkDock/OUTPUTS/openbind_a71ev2a_c2_elabs_1LSYIDY.sdf']

>  <name>  (208) 
P570309

>  <ref_pdb>  (208) 
A2339a

>  <subsites>  (208) 
None

>  <HIPPO Pose ID>  (208) 
570309

>  <ref_mols>  (208) 
A2339a

>  <HIPPO Compound ID>  (208) 
411214

>  <tags>  (208) 
openbind_a71ev2a_c2_elabs,syndirella_product,openbind_a71ev2a_c2_elabs_scored,BulkDock Fragalysis export,openbind_a71ev2a_c2_elabs_scored_top80percent,openbind_a71ev2a_c2_elabs_scored_6plus,openbind_a71ev2a_c2_elabs_scored_top80percent_despaghettified,syndirella_placed

>  <smina_score_min>  (208) 
-5.928

$$$$
P570310
     RDKit          3D

 22 25  0  0  0  0  0  0  0  0999 V2000
    9.3105    8.6213   23.5221 C   0  0  0  0  0  0  0  0  0  0  0  0
    8.9282    9.9648   23.8794 N   0  0  0  0  0  0  0  0  0  0  0  0
    9.6060   10.9751   23.3213 N   0  0  0  0  0  0  0  0  0  0  0  0
    8.8476   12.0452   23.5915 C   0  0  0  0  0  0  0  0  0  0  0  0
    8.9932   13.2267   22.7679 C   0  0  0  0  0  0  0  0  0  0  0  0
    8.0702   13.7664   22.3089 O   0  0  0  0  0  0  0  0  0  0  0  0
   10.4901   13.4882   22.5833 N   0  0  0  0  0  0  0  0  0  0  0  0
   11.1408   14.3589   21.7675 C   0  0  0  0  0  0  0  0  0  0  0  0
   12.4785   14.6483   21.7817 C   0  0  0  0  0  0  0  0  0  0  0  0
   12.8320   15.3043   20.6566 N   0  0  0  0  0  0  0  0  0  0  0  0
   11.7417   15.4554   19.9261 N   0  0  0  0  0  0  0  0  0  0  0  0
   10.7057   15.0575   20.6731 N   0  0  0  0  0  0  0  0  0  0  0  0
    9.4111   15.7051   20.4715 C   0  0  0  0  0  0  0  0  0  0  0  0
    8.5700   16.2898   21.5675 C   0  0  0  0  0  0  0  0  0  0  0  0
    9.3375   17.2133   20.6836 C   0  0  0  0  0  0  0  0  0  0  0  0
    7.9131   11.7842   24.6098 C   0  0  0  0  0  0  0  0  0  0  0  0
    7.0083   12.5429   25.3719 C   0  0  0  0  0  0  0  0  0  0  0  0
    6.1712   11.8707   26.2579 C   0  0  0  0  0  0  0  0  0  0  0  0
    5.3540   12.5731   27.0520 F   0  0  0  0  0  0  0  0  0  0  0  0
    6.1573   10.4866   26.3358 C   0  0  0  0  0  0  0  0  0  0  0  0
    7.0248    9.7282   25.5490 C   0  0  0  0  0  0  0  0  0  0  0  0
    7.9369   10.3962   24.7319 C   0  0  0  0  0  0  0  0  0  0  0  0
  1  2  1  0
  2  3  1  0
  3  4  2  0
  4  5  1  0
  5  6  2  0
  5  7  1  0
  7  8  1  0
  8  9  2  0
  9 10  1  0
 10 11  2  0
 11 12  1  0
 12 13  1  0
 13 14  1  0
 14 15  1  0
  4 16  1  0
 16 17  2  0
 17 18  1  0
 18 19  1  0
 18 20  2  0
 20 21  1  0
 21 22  2  0
 22  2  1  0
 12  8  1  0
 15 13  1  0
 22 16  1  0
M  END
>  <alias>  (209) 
None

>  <rmsd(smina/fragmenstein)>  (209) 
0.488

>  <smiles>  (209) 
Cn1nc(C(=O)Nc2cnnn2C2CC2)c2cc(F)ccc21

>  <gnina_score>  (209) 
6.011

>  <inspiration_score>  (209) 
None

>  <energy_score>  (209) 
-8.493925

>  <distance_score>  (209) 
0.796989

>  <gnina_score_min>  (209) 
5.889

>  <inchikey>  (209) 
GACYCDQRHWISQS-UHFFFAOYSA-N

>  <exports>  (209) 
['/opt/xchem-fragalysis-2/maxwin/BulkDock/OUTPUTS/openbind_a71ev2a_c2_elabs_1LOUU54.sdf', '/opt/xchem-fragalysis-2/maxwin/BulkDock/OUTPUTS/openbind_a71ev2a_c2_elabs_1LSYIDY.sdf']

>  <name>  (209) 
P570310

>  <ref_pdb>  (209) 
A2339a

>  <subsites>  (209) 
None

>  <HIPPO Pose ID>  (209) 
570310

>  <ref_mols>  (209) 
A2339a

>  <HIPPO Compound ID>  (209) 
411216

>  <tags>  (209) 
openbind_a71ev2a_c2_elabs,syndirella_product,openbind_a71ev2a_c2_elabs_scored,BulkDock Fragalysis export,openbind_a71ev2a_c2_elabs_scored_top80percent,openbind_a71ev2a_c2_elabs_scored_top80percent_despaghettified,syndirella_placed

>  <smina_score_min>  (209) 
-6.381

$$$$
P570312
     RDKit          3D

 22 25  0  0  0  0  0  0  0  0999 V2000
    9.5216    9.1087   23.1609 C   0  0  0  0  0  0  0  0  0  0  0  0
    9.0807   10.3682   23.7219 N   0  0  0  0  0  0  0  0  0  0  0  0
    9.7267   11.5031   23.3746 N   0  0  0  0  0  0  0  0  0  0  0  0
    9.1383   12.4588   24.1211 C   0  0  0  0  0  0  0  0  0  0  0  0
    9.5917   13.8577   24.1114 C   0  0  0  0  0  0  0  0  0  0  0  0
    9.1318   14.6415   24.8403 O   0  0  0  0  0  0  0  0  0  0  0  0
   10.6065   14.0321   22.9746 N   0  0  0  0  0  0  0  0  0  0  0  0
   11.1855   15.1885   22.4432 C   0  0  1  0  0  0  0  0  0  0  0  0
   12.3309   15.3076   21.4963 C   0  0  0  0  0  0  0  0  0  0  0  0
   10.9395   15.4266   20.9985 C   0  0  0  0  0  0  0  0  0  0  0  0
   10.4915   14.5130   19.9408 C   0  0  0  0  0  0  0  0  0  0  0  0
   10.2557   15.7817   19.1339 C   0  0  0  0  0  0  0  0  0  0  0  0
   11.3034   16.1739   18.3810 F   0  0  0  0  0  0  0  0  0  0  0  0
    9.2048   15.7407   18.3035 F   0  0  0  0  0  0  0  0  0  0  0  0
   10.0615   16.4959   20.4901 C   0  0  0  0  0  0  0  0  0  0  0  0
    8.0568   11.9423   24.8755 C   0  0  0  0  0  0  0  0  0  0  0  0
    7.0999   12.4841   25.7538 C   0  0  0  0  0  0  0  0  0  0  0  0
    6.2126   11.6212   26.3857 C   0  0  0  0  0  0  0  0  0  0  0  0
    5.3311   12.1228   27.2598 F   0  0  0  0  0  0  0  0  0  0  0  0
    6.2514   10.2529   26.1633 C   0  0  0  0  0  0  0  0  0  0  0  0
    7.1889    9.7091   25.2815 C   0  0  0  0  0  0  0  0  0  0  0  0
    8.0746   10.5744   24.6358 C   0  0  0  0  0  0  0  0  0  0  0  0
  1  2  1  0
  2  3  1  0
  3  4  2  0
  4  5  1  0
  5  6  2  0
  5  7  1  0
  8  7  1  6
  8  9  1  0
  9 10  1  0
 10 11  1  0
 11 12  1  0
 12 13  1  0
 12 14  1  0
 12 15  1  0
  4 16  1  0
 16 17  2  0
 17 18  1  0
 18 19  1  0
 18 20  2  0
 20 21  1  0
 21 22  2  0
 22  2  1  0
 10  8  1  0
 22 16  1  0
 15 10  1  0
M  END
>  <alias>  (210) 
None

>  <rmsd(smina/fragmenstein)>  (210) 
0.482

>  <smiles>  (210) 
Cn1nc(C(=O)N[C@H]2CC23CC(F)(F)C3)c2cc(F)ccc21

>  <gnina_score>  (210) 
5.677

>  <inspiration_score>  (210) 
None

>  <energy_score>  (210) 
-5.399179

>  <distance_score>  (210) 
0.603257

>  <gnina_score_min>  (210) 
5.577

>  <inchikey>  (210) 
JJXGUTIFPCPJDF-NSHDSACASA-N

>  <exports>  (210) 
['/opt/xchem-fragalysis-2/maxwin/BulkDock/OUTPUTS/openbind_a71ev2a_c2_elabs_1LOUU54.sdf', '/opt/xchem-fragalysis-2/maxwin/BulkDock/OUTPUTS/openbind_a71ev2a_c2_elabs_1LSYIDY.sdf']

>  <name>  (210) 
P570312

>  <ref_pdb>  (210) 
A2339a

>  <subsites>  (210) 
None

>  <HIPPO Pose ID>  (210) 
570312

>  <ref_mols>  (210) 
A2339a

>  <HIPPO Compound ID>  (210) 
411217

>  <tags>  (210) 
openbind_a71ev2a_c2_elabs,syndirella_product,openbind_a71ev2a_c2_elabs_scored,BulkDock Fragalysis export,openbind_a71ev2a_c2_elabs_scored_top80percent,openbind_a71ev2a_c2_elabs_scored_top80percent_despaghettified,syndirella_placed

>  <smina_score_min>  (210) 
-7.525

$$$$
P570313
     RDKit          3D

 22 25  0  0  0  0  0  0  0  0999 V2000
    9.3179    8.3928   23.4506 C   0  0  0  0  0  0  0  0  0  0  0  0
    8.8243    9.7084   23.7534 N   0  0  0  0  0  0  0  0  0  0  0  0
    9.3610   10.7369   23.0792 N   0  0  0  0  0  0  0  0  0  0  0  0
    8.5263   11.7335   23.3778 C   0  0  0  0  0  0  0  0  0  0  0  0
    8.6241   13.0518   22.8474 C   0  0  0  0  0  0  0  0  0  0  0  0
    7.7118   13.7252   22.6160 O   0  0  0  0  0  0  0  0  0  0  0  0
   10.0990   13.3458   22.7787 N   0  0  0  0  0  0  0  0  0  0  0  0
   10.7634   14.5143   22.5130 C   0  0  0  0  0  0  0  0  0  0  0  0
   10.7881   15.1991   23.8655 C   0  0  2  0  0  0  0  0  0  0  0  0
   11.5543   14.4096   24.9163 C   0  0  0  0  0  0  0  0  0  0  0  0
   11.2133   15.1923   26.1768 C   0  0  0  0  0  0  0  0  0  0  0  0
    9.8590   15.6327   26.0200 O   0  0  0  0  0  0  0  0  0  0  0  0
    9.4716   15.2399   24.6859 C   0  0  0  0  0  0  0  0  0  0  0  0
   11.8896   14.6529   21.5316 C   0  0  0  0  0  0  0  0  0  0  0  0
   10.5608   15.2984   21.2468 C   0  0  0  0  0  0  0  0  0  0  0  0
    7.7310   11.4676   24.5040 C   0  0  0  0  0  0  0  0  0  0  0  0
    6.8956   12.2242   25.3511 C   0  0  0  0  0  0  0  0  0  0  0  0
    6.1449   11.5550   26.3039 C   0  0  0  0  0  0  0  0  0  0  0  0
    5.3666   12.2497   27.1422 F   0  0  0  0  0  0  0  0  0  0  0  0
    6.1763   10.1767   26.3840 C   0  0  0  0  0  0  0  0  0  0  0  0
    7.0284    9.4465   25.5497 C   0  0  0  0  0  0  0  0  0  0  0  0
    7.8574   10.1033   24.6539 C   0  0  0  0  0  0  0  0  0  0  0  0
  1  2  1  0
  2  3  1  0
  3  4  2  0
  4  5  1  0
  5  6  2  0
  5  7  1  0
  7  8  1  0
  9  8  1  6
  9 10  1  0
 10 11  1  0
 11 12  1  0
 12 13  1  0
  8 14  1  0
 14 15  1  0
  4 16  1  0
 16 17  2  0
 17 18  1  0
 18 19  1  0
 18 20  2  0
 20 21  1  0
 21 22  2  0
 22  2  1  0
 15  8  1  0
 22 16  1  0
 13  9  1  0
M  END
>  <alias>  (211) 
None

>  <rmsd(smina/fragmenstein)>  (211) 
0.565

>  <smiles>  (211) 
Cn1nc(C(=O)NC2([C@@H]3CCOC3)CC2)c2cc(F)ccc21

>  <gnina_score>  (211) 
5.841

>  <inspiration_score>  (211) 
None

>  <energy_score>  (211) 
-4.24514

>  <distance_score>  (211) 
0.924182

>  <gnina_score_min>  (211) 
5.593

>  <inchikey>  (211) 
ZSFHKXUYXHZNSR-SNVBAGLBSA-N

>  <exports>  (211) 
['/opt/xchem-fragalysis-2/maxwin/BulkDock/OUTPUTS/openbind_a71ev2a_c2_elabs_1LOUU54.sdf', '/opt/xchem-fragalysis-2/maxwin/BulkDock/OUTPUTS/openbind_a71ev2a_c2_elabs_1LSYIDY.sdf']

>  <name>  (211) 
P570313

>  <ref_pdb>  (211) 
A2339a

>  <subsites>  (211) 
None

>  <HIPPO Pose ID>  (211) 
570313

>  <ref_mols>  (211) 
A2339a

>  <HIPPO Compound ID>  (211) 
411219

>  <tags>  (211) 
openbind_a71ev2a_c2_elabs,syndirella_product,openbind_a71ev2a_c2_elabs_scored,BulkDock Fragalysis export,openbind_a71ev2a_c2_elabs_scored_top80percent,openbind_a71ev2a_c2_elabs_scored_top80percent_despaghettified,syndirella_placed

>  <smina_score_min>  (211) 
-5.258

$$$$
P570318
     RDKit          3D

 22 26  0  0  0  0  0  0  0  0999 V2000
    9.0001    8.6824   23.6052 C   0  0  0  0  0  0  0  0  0  0  0  0
    8.6102   10.0005   24.0424 N   0  0  0  0  0  0  0  0  0  0  0  0
    9.2717   11.0489   23.5352 N   0  0  0  0  0  0  0  0  0  0  0  0
    8.7749   12.0999   24.2106 C   0  0  0  0  0  0  0  0  0  0  0  0
    9.2539   13.4382   23.9464 C   0  0  0  0  0  0  0  0  0  0  0  0
    8.9979   14.3550   24.6162 O   0  0  0  0  0  0  0  0  0  0  0  0
   10.0178   13.3579   22.6259 N   0  0  0  0  0  0  0  0  0  0  0  0
   10.6833   14.3267   21.9217 C   0  0  1  0  0  0  0  0  0  0  0  0
   10.7078   15.7006   22.4780 C   0  0  0  0  0  0  0  0  0  0  0  0
   11.5853   16.2933   21.3718 C   0  0  1  0  0  0  0  0  0  0  0  0
   12.7720   15.3080   21.3324 C   0  0  0  0  0  0  0  0  0  0  0  0
   11.9341   14.0872   21.1798 C   0  0  2  0  0  0  0  0  0  0  0  0
   10.6872   14.4639   20.4524 C   0  0  2  0  0  0  0  0  0  0  0  0
   10.7824   15.9006   20.1015 C   0  0  1  0  0  0  0  0  0  0  0  0
    9.5682   16.4850   20.0942 F   0  0  0  0  0  0  0  0  0  0  0  0
    7.7486   11.7420   25.0914 C   0  0  0  0  0  0  0  0  0  0  0  0
    6.8964   12.4431   25.9599 C   0  0  0  0  0  0  0  0  0  0  0  0
    5.9722   11.7192   26.6951 C   0  0  0  0  0  0  0  0  0  0  0  0
    5.1805   12.3642   27.5582 F   0  0  0  0  0  0  0  0  0  0  0  0
    5.8666   10.3453   26.5675 C   0  0  0  0  0  0  0  0  0  0  0  0
    6.6948    9.6539   25.6816 C   0  0  0  0  0  0  0  0  0  0  0  0
    7.6486   10.3636   24.9574 C   0  0  0  0  0  0  0  0  0  0  0  0
  1  2  1  0
  2  3  1  0
  3  4  2  0
  4  5  1  0
  5  6  2  0
  5  7  1  0
  8  7  1  6
  8  9  1  0
 10  9  1  1
 10 11  1  0
 12 11  1  1
 12 13  1  0
 13 14  1  1
 14 15  1  1
  4 16  1  0
 16 17  2  0
 17 18  1  0
 18 19  1  0
 18 20  2  0
 20 21  1  0
 21 22  2  0
 22  2  1  0
 12  8  1  0
 22 16  1  0
 13  8  1  0
 14 10  1  0
M  END
>  <alias>  (212) 
None

>  <rmsd(smina/fragmenstein)>  (212) 
0.697

>  <smiles>  (212) 
Cn1nc(C(=O)N[C@@]23C[C@H]4C[C@@H]2[C@@H]3[C@H]4F)c2cc(F)ccc21

>  <gnina_score>  (212) 
5.763

>  <inspiration_score>  (212) 
None

>  <energy_score>  (212) 
-36.552638

>  <distance_score>  (212) 
0.752069

>  <gnina_score_min>  (212) 
5.808

>  <inchikey>  (212) 
DRBSPXBNEWQPDS-XACHICMGSA-N

>  <exports>  (212) 
['/opt/xchem-fragalysis-2/maxwin/BulkDock/OUTPUTS/openbind_a71ev2a_c2_elabs_1LOUU54.sdf', '/opt/xchem-fragalysis-2/maxwin/BulkDock/OUTPUTS/openbind_a71ev2a_c2_elabs_1LSYIDY.sdf']

>  <name>  (212) 
P570318

>  <ref_pdb>  (212) 
A2339a

>  <subsites>  (212) 
None

>  <HIPPO Pose ID>  (212) 
570318

>  <ref_mols>  (212) 
A2339a

>  <HIPPO Compound ID>  (212) 
411221

>  <tags>  (212) 
openbind_a71ev2a_c2_elabs,syndirella_product,openbind_a71ev2a_c2_elabs_scored,BulkDock Fragalysis export,openbind_a71ev2a_c2_elabs_scored_top80percent,openbind_a71ev2a_c2_elabs_scored_top80percent_despaghettified,syndirella_placed

>  <smina_score_min>  (212) 
-6.873

$$$$
P570320
     RDKit          3D

 22 25  0  0  0  0  0  0  0  0999 V2000
    8.9900    8.9169   23.6678 C   0  0  0  0  0  0  0  0  0  0  0  0
    8.5049   10.1915   24.1503 N   0  0  0  0  0  0  0  0  0  0  0  0
    9.1494   11.3028   23.7657 N   0  0  0  0  0  0  0  0  0  0  0  0
    8.5912   12.2816   24.5095 C   0  0  0  0  0  0  0  0  0  0  0  0
    9.1594   13.6209   24.5310 C   0  0  0  0  0  0  0  0  0  0  0  0
    8.7722   14.4976   25.1859 O   0  0  0  0  0  0  0  0  0  0  0  0
   10.3250   13.5551   23.5639 N   0  0  0  0  0  0  0  0  0  0  0  0
   11.2973   14.4876   23.2654 C   0  0  1  0  0  0  0  0  0  0  0  0
   12.5390   14.0552   22.5638 C   0  0  0  0  0  0  0  0  0  0  0  0
   11.4994   14.7825   21.8286 C   0  0  0  0  0  0  0  0  0  0  0  0
   11.6165   16.1084   21.2445 C   0  0  0  0  0  0  0  0  0  0  0  0
   10.2487   15.7753   20.5959 C   0  0  0  0  0  0  0  0  0  0  0  0
    8.9781   16.1107   21.3710 C   0  0  0  0  0  0  0  0  0  0  0  0
   10.1598   16.2044   19.1607 C   0  0  0  0  0  0  0  0  0  0  0  0
   10.6713   14.3112   20.7072 C   0  0  0  0  0  0  0  0  0  0  0  0
    7.5201   11.8224   25.2740 C   0  0  0  0  0  0  0  0  0  0  0  0
    6.6291   12.4235   26.1722 C   0  0  0  0  0  0  0  0  0  0  0  0
    5.7454   11.6061   26.8518 C   0  0  0  0  0  0  0  0  0  0  0  0
    4.9190   12.1567   27.7454 F   0  0  0  0  0  0  0  0  0  0  0  0
    5.7215   10.2368   26.6472 C   0  0  0  0  0  0  0  0  0  0  0  0
    6.5876    9.6458   25.7262 C   0  0  0  0  0  0  0  0  0  0  0  0
    7.4996   10.4508   25.0532 C   0  0  0  0  0  0  0  0  0  0  0  0
  1  2  1  0
  2  3  1  0
  3  4  2  0
  4  5  1  0
  5  6  2  0
  5  7  1  0
  8  7  1  6
  8  9  1  0
  9 10  1  0
 10 11  1  0
 11 12  1  0
 12 13  1  0
 12 14  1  0
 12 15  1  0
  4 16  1  0
 16 17  2  0
 17 18  1  0
 18 19  1  0
 18 20  2  0
 20 21  1  0
 21 22  2  0
 22  2  1  0
 10  8  1  0
 22 16  1  0
 15 10  1  0
M  END
>  <alias>  (213) 
None

>  <rmsd(smina/fragmenstein)>  (213) 
0.744

>  <smiles>  (213) 
Cn1nc(C(=O)N[C@H]2CC23CC(C)(C)C3)c2cc(F)ccc21

>  <gnina_score>  (213) 
5.826

>  <inspiration_score>  (213) 
None

>  <energy_score>  (213) 
-8.963978

>  <distance_score>  (213) 
1.228443

>  <gnina_score_min>  (213) 
5.541

>  <inchikey>  (213) 
KORKXWKHXXNPAX-ZDUSSCGKSA-N

>  <exports>  (213) 
['/opt/xchem-fragalysis-2/maxwin/BulkDock/OUTPUTS/openbind_a71ev2a_c2_elabs_1LOUU54.sdf', '/opt/xchem-fragalysis-2/maxwin/BulkDock/OUTPUTS/openbind_a71ev2a_c2_elabs_1LSYIDY.sdf']

>  <name>  (213) 
P570320

>  <ref_pdb>  (213) 
A2339a

>  <subsites>  (213) 
None

>  <HIPPO Pose ID>  (213) 
570320

>  <ref_mols>  (213) 
A2339a

>  <HIPPO Compound ID>  (213) 
411222

>  <tags>  (213) 
openbind_a71ev2a_c2_elabs,syndirella_product,openbind_a71ev2a_c2_elabs_scored,BulkDock Fragalysis export,openbind_a71ev2a_c2_elabs_scored_top80percent,openbind_a71ev2a_c2_elabs_scored_top80percent_despaghettified,syndirella_placed

>  <smina_score_min>  (213) 
-7.147

$$$$
P570321
     RDKit          3D

 22 24  0  0  0  0  0  0  0  0999 V2000
   12.4372   14.0565   20.6858 C   0  0  0  0  0  0  0  0  0  0  0  0
   11.0668   14.2055   20.3152 N   0  0  0  0  0  0  0  0  0  0  0  0
   10.0832   14.4881   21.2967 C   0  0  0  0  0  0  0  0  0  0  0  0
   10.5270   15.5619   22.2678 C   0  0  0  0  0  0  0  0  0  0  0  0
   11.2531   14.9840   23.4794 C   0  0  0  0  0  0  0  0  0  0  0  0
   10.4887   13.8775   23.9028 N   0  0  0  0  0  0  0  0  0  0  0  0
    9.2000   13.8162   24.6976 C   0  0  0  0  0  0  0  0  0  0  0  0
    8.5881   14.6605   25.2058 O   0  0  0  0  0  0  0  0  0  0  0  0
    8.7659   12.4238   24.6339 C   0  0  0  0  0  0  0  0  0  0  0  0
    9.4132   11.5214   23.8657 N   0  0  0  0  0  0  0  0  0  0  0  0
    8.7452   10.3715   24.0742 N   0  0  0  0  0  0  0  0  0  0  0  0
    9.2169    9.1713   23.4147 C   0  0  0  0  0  0  0  0  0  0  0  0
    7.7114   10.5195   24.9682 C   0  0  0  0  0  0  0  0  0  0  0  0
    6.8191    9.6265   25.5492 C   0  0  0  0  0  0  0  0  0  0  0  0
    5.8693   10.1155   26.4492 C   0  0  0  0  0  0  0  0  0  0  0  0
    5.8041   11.4706   26.7295 C   0  0  0  0  0  0  0  0  0  0  0  0
    4.9031   11.9296   27.6036 F   0  0  0  0  0  0  0  0  0  0  0  0
    6.6843   12.3699   26.1558 C   0  0  0  0  0  0  0  0  0  0  0  0
    7.6634   11.8693   25.2875 C   0  0  0  0  0  0  0  0  0  0  0  0
   10.7871   14.5993   18.9815 C   0  0  0  0  0  0  0  0  0  0  0  0
    9.9103   15.7891   18.7662 C   0  0  0  0  0  0  0  0  0  0  0  0
   11.3680   15.8300   18.4804 C   0  0  0  0  0  0  0  0  0  0  0  0
  1  2  1  0
  2  3  1  0
  3  4  1  0
  4  5  1  0
  5  6  1  0
  6  7  1  0
  7  8  2  0
  7  9  1  0
  9 10  2  0
 10 11  1  0
 11 12  1  0
 11 13  1  0
 13 14  2  0
 14 15  1  0
 15 16  2  0
 16 17  1  0
 16 18  1  0
 18 19  2  0
  2 20  1  0
 20 21  1  0
 21 22  1  0
 19  9  1  0
 22 20  1  0
 19 13  1  0
M  END
>  <alias>  (214) 
None

>  <rmsd(smina/fragmenstein)>  (214) 
1.842

>  <smiles>  (214) 
CN(CCCNC(=O)c1nn(C)c2ccc(F)cc12)C1CC1

>  <gnina_score>  (214) 
5.588

>  <inspiration_score>  (214) 
None

>  <energy_score>  (214) 
-21.644833

>  <distance_score>  (214) 
1.267139

>  <gnina_score_min>  (214) 
5.369

>  <inchikey>  (214) 
VREBFXNPQUCMDZ-UHFFFAOYSA-N

>  <exports>  (214) 
['/opt/xchem-fragalysis-2/maxwin/BulkDock/OUTPUTS/openbind_a71ev2a_c2_elabs_1LOUU54.sdf', '/opt/xchem-fragalysis-2/maxwin/BulkDock/OUTPUTS/openbind_a71ev2a_c2_elabs_1LSYIDY.sdf']

>  <name>  (214) 
P570321

>  <ref_pdb>  (214) 
A2339a

>  <subsites>  (214) 
None

>  <HIPPO Pose ID>  (214) 
570321

>  <ref_mols>  (214) 
A2339a

>  <HIPPO Compound ID>  (214) 
411223

>  <tags>  (214) 
openbind_a71ev2a_c2_elabs,syndirella_product,openbind_a71ev2a_c2_elabs_scored,BulkDock Fragalysis export,openbind_a71ev2a_c2_elabs_scored_top80percent,openbind_a71ev2a_c2_elabs_scored_top80percent_despaghettified,syndirella_placed

>  <smina_score_min>  (214) 
-5.082

$$$$
P570322
     RDKit          3D

 22 25  0  0  0  0  0  0  0  0999 V2000
    9.3385    9.0598   23.3918 C   0  0  0  0  0  0  0  0  0  0  0  0
    8.7069   10.3083   23.7639 N   0  0  0  0  0  0  0  0  0  0  0  0
    9.0870   11.4356   23.1343 N   0  0  0  0  0  0  0  0  0  0  0  0
    8.3471   12.4088   23.7076 C   0  0  0  0  0  0  0  0  0  0  0  0
    8.6051   13.8139   23.4050 C   0  0  0  0  0  0  0  0  0  0  0  0
    8.1448   14.6797   24.0322 O   0  0  0  0  0  0  0  0  0  0  0  0
    9.6122   13.8491   22.2525 N   0  0  0  0  0  0  0  0  0  0  0  0
   10.3236   14.9171   21.7012 C   0  0  0  0  0  0  0  0  0  0  0  0
   11.4737   15.0290   22.7674 C   0  0  0  0  0  0  0  0  0  0  0  0
   12.4071   14.0103   22.7016 C   0  0  0  0  0  0  0  0  0  0  0  0
   12.5029   13.2397   24.2357 S   0  0  0  0  0  0  0  0  0  0  0  0
   11.5109   14.4773   24.8926 C   0  0  0  0  0  0  0  0  0  0  0  0
   11.1236   15.4131   24.0574 N   0  0  0  0  0  0  0  0  0  0  0  0
    9.7650   16.0719   20.9652 C   0  0  0  0  0  0  0  0  0  0  0  0
   10.6639   15.0934   20.2584 C   0  0  0  0  0  0  0  0  0  0  0  0
    7.5449   11.9068   24.7491 C   0  0  0  0  0  0  0  0  0  0  0  0
    6.6846   12.4746   25.7029 C   0  0  0  0  0  0  0  0  0  0  0  0
    5.9894   11.6231   26.5486 C   0  0  0  0  0  0  0  0  0  0  0  0
    5.1780   12.1483   27.4731 F   0  0  0  0  0  0  0  0  0  0  0  0
    6.1196   10.2456   26.4580 C   0  0  0  0  0  0  0  0  0  0  0  0
    7.0067    9.6798   25.5390 C   0  0  0  0  0  0  0  0  0  0  0  0
    7.7398   10.5304   24.7151 C   0  0  0  0  0  0  0  0  0  0  0  0
  1  2  1  0
  2  3  1  0
  3  4  2  0
  4  5  1  0
  5  6  2  0
  5  7  1  0
  7  8  1  0
  8  9  1  0
  9 10  2  0
 10 11  1  0
 11 12  1  0
 12 13  2  0
  8 14  1  0
 14 15  1  0
  4 16  1  0
 16 17  2  0
 17 18  1  0
 18 19  1  0
 18 20  2  0
 20 21  1  0
 21 22  2  0
 22  2  1  0
 15  8  1  0
 22 16  1  0
 13  9  1  0
M  END
>  <alias>  (215) 
None

>  <rmsd(smina/fragmenstein)>  (215) 
0.729

>  <smiles>  (215) 
Cn1nc(C(=O)NC2(c3cscn3)CC2)c2cc(F)ccc21

>  <gnina_score>  (215) 
6.173

>  <inspiration_score>  (215) 
None

>  <energy_score>  (215) 
-66.52666

>  <distance_score>  (215) 
0.902224

>  <gnina_score_min>  (215) 
5.837

>  <inchikey>  (215) 
CQQMIVBNDRLOMZ-UHFFFAOYSA-N

>  <exports>  (215) 
['/opt/xchem-fragalysis-2/maxwin/BulkDock/OUTPUTS/openbind_a71ev2a_c2_elabs_1LOUU54.sdf', '/opt/xchem-fragalysis-2/maxwin/BulkDock/OUTPUTS/openbind_a71ev2a_c2_elabs_1LSYIDY.sdf']

>  <name>  (215) 
P570322

>  <ref_pdb>  (215) 
A2339a

>  <subsites>  (215) 
None

>  <HIPPO Pose ID>  (215) 
570322

>  <ref_mols>  (215) 
A2339a

>  <HIPPO Compound ID>  (215) 
411225

>  <tags>  (215) 
openbind_a71ev2a_c2_elabs,syndirella_product,openbind_a71ev2a_c2_elabs_scored,BulkDock Fragalysis export,openbind_a71ev2a_c2_elabs_scored_top80percent,openbind_a71ev2a_c2_elabs_scored_top80percent_despaghettified,syndirella_placed

>  <smina_score_min>  (215) 
-6.363

$$$$
P570326
     RDKit          3D

 22 25  0  0  0  0  0  0  0  0999 V2000
    9.2421    8.9348   23.4871 C   0  0  0  0  0  0  0  0  0  0  0  0
    8.7531   10.2105   23.9614 N   0  0  0  0  0  0  0  0  0  0  0  0
    9.4172   11.3200   23.5900 N   0  0  0  0  0  0  0  0  0  0  0  0
    8.8451   12.3004   24.3161 C   0  0  0  0  0  0  0  0  0  0  0  0
    9.4327   13.6320   24.3859 C   0  0  0  0  0  0  0  0  0  0  0  0
    8.9776   14.4959   25.0181 O   0  0  0  0  0  0  0  0  0  0  0  0
   10.7261   13.5712   23.5787 N   0  0  0  0  0  0  0  0  0  0  0  0
   11.6636   14.5543   23.3038 C   0  0  1  0  0  0  0  0  0  0  0  0
   12.4694   14.5733   22.0549 C   0  0  0  0  0  0  0  0  0  0  0  0
   11.3553   15.5713   22.2319 C   0  0  1  0  0  0  0  0  0  0  0  0
   10.0283   15.5216   21.5257 C   0  0  0  0  0  0  0  0  0  0  0  0
    9.8542   16.6693   20.5361 C   0  0  0  0  0  0  0  0  0  0  0  0
   10.2569   16.0899   19.1779 C   0  0  0  0  0  0  0  0  0  0  0  0
   10.7915   14.7134   19.4421 C   0  0  0  0  0  0  0  0  0  0  0  0
    9.9141   14.3133   20.6203 C   0  0  0  0  0  0  0  0  0  0  0  0
    7.7449   11.8448   25.0556 C   0  0  0  0  0  0  0  0  0  0  0  0
    6.8296   12.4422   25.9370 C   0  0  0  0  0  0  0  0  0  0  0  0
    5.9391   11.6239   26.6127 C   0  0  0  0  0  0  0  0  0  0  0  0
    5.0954   12.1755   27.4917 F   0  0  0  0  0  0  0  0  0  0  0  0
    5.9376   10.2516   26.4282 C   0  0  0  0  0  0  0  0  0  0  0  0
    6.8357    9.6600   25.5376 C   0  0  0  0  0  0  0  0  0  0  0  0
    7.7395   10.4705   24.8553 C   0  0  0  0  0  0  0  0  0  0  0  0
  1  2  1  0
  2  3  1  0
  3  4  2  0
  4  5  1  0
  5  6  2  0
  5  7  1  0
  8  7  1  6
  8  9  1  0
  9 10  1  0
 10 11  1  6
 11 12  1  0
 12 13  1  0
 13 14  1  0
 14 15  1  0
  4 16  1  0
 16 17  2  0
 17 18  1  0
 18 19  1  0
 18 20  2  0
 20 21  1  0
 21 22  2  0
 22  2  1  0
 10  8  1  0
 15 11  1  0
 22 16  1  0
M  END
>  <alias>  (216) 
None

>  <rmsd(smina/fragmenstein)>  (216) 
0.415

>  <smiles>  (216) 
Cn1nc(C(=O)N[C@H]2C[C@H]2C2CCCC2)c2cc(F)ccc21

>  <gnina_score>  (216) 
5.879

>  <inspiration_score>  (216) 
None

>  <energy_score>  (216) 
-12.511669

>  <distance_score>  (216) 
1.035642

>  <gnina_score_min>  (216) 
5.846

>  <inchikey>  (216) 
DOWFBIQDXBHWPT-JSGCOSHPSA-N

>  <exports>  (216) 
['/opt/xchem-fragalysis-2/maxwin/BulkDock/OUTPUTS/openbind_a71ev2a_c2_elabs_1LOUU54.sdf', '/opt/xchem-fragalysis-2/maxwin/BulkDock/OUTPUTS/openbind_a71ev2a_c2_elabs_1LSYIDY.sdf']

>  <name>  (216) 
P570326

>  <ref_pdb>  (216) 
A2339a

>  <subsites>  (216) 
None

>  <HIPPO Pose ID>  (216) 
570326

>  <ref_mols>  (216) 
A2339a

>  <HIPPO Compound ID>  (216) 
411231

>  <tags>  (216) 
openbind_a71ev2a_c2_elabs,syndirella_product,openbind_a71ev2a_c2_elabs_scored,BulkDock Fragalysis export,openbind_a71ev2a_c2_elabs_scored_top80percent,openbind_a71ev2a_c2_elabs_scored_top80percent_despaghettified,syndirella_placed

>  <smina_score_min>  (216) 
-7.009

$$$$
P570327
     RDKit          3D

 22 25  0  0  0  0  0  0  0  0999 V2000
   11.3301   15.3731   18.4914 C   0  0  0  0  0  0  0  0  0  0  0  0
   10.3025   16.2150   18.9912 O   0  0  0  0  0  0  0  0  0  0  0  0
    9.8377   16.0071   20.3423 C   0  0  1  0  0  0  0  0  0  0  0  0
    9.7589   14.5712   20.8856 C   0  0  0  0  0  0  0  0  0  0  0  0
   11.0635   14.8818   21.5197 C   0  0  2  0  0  0  0  0  0  0  0  0
   12.3538   14.1955   21.3385 C   0  0  0  0  0  0  0  0  0  0  0  0
   11.7015   14.1795   22.6743 C   0  0  2  0  0  0  0  0  0  0  0  0
   10.8469   13.2265   23.1990 N   0  0  0  0  0  0  0  0  0  0  0  0
    9.7443   13.3520   24.2494 C   0  0  0  0  0  0  0  0  0  0  0  0
    9.4240   14.2599   24.9026 O   0  0  0  0  0  0  0  0  0  0  0  0
    9.0351   12.0821   24.2679 C   0  0  0  0  0  0  0  0  0  0  0  0
    9.4785   11.0356   23.5485 N   0  0  0  0  0  0  0  0  0  0  0  0
    8.7253   10.0104   23.9710 N   0  0  0  0  0  0  0  0  0  0  0  0
    9.0817    8.6818   23.5345 C   0  0  0  0  0  0  0  0  0  0  0  0
    7.7465   10.3917   24.8608 C   0  0  0  0  0  0  0  0  0  0  0  0
    6.7684    9.6926   25.5668 C   0  0  0  0  0  0  0  0  0  0  0  0
    5.9338   10.3970   26.4357 C   0  0  0  0  0  0  0  0  0  0  0  0
    6.0608   11.7694   26.5685 C   0  0  0  0  0  0  0  0  0  0  0  0
    5.2639   12.4215   27.4223 F   0  0  0  0  0  0  0  0  0  0  0  0
    7.0277   12.4773   25.8698 C   0  0  0  0  0  0  0  0  0  0  0  0
    7.8923   11.7646   25.0211 C   0  0  0  0  0  0  0  0  0  0  0  0
   10.7744   16.3066   21.5095 C   0  0  0  0  0  0  0  0  0  0  0  0
  1  2  1  0
  3  2  1  6
  3  4  1  0
  5  4  1  6
  5  6  1  0
  6  7  1  0
  7  8  1  6
  8  9  1  0
  9 10  2  0
  9 11  1  0
 11 12  2  0
 12 13  1  0
 13 14  1  0
 13 15  1  0
 15 16  2  0
 16 17  1  0
 17 18  2  0
 18 19  1  0
 18 20  1  0
 20 21  2  0
  5 22  1  0
 22  3  1  0
  7  5  1  0
 21 11  1  0
 21 15  1  0
M  END
>  <alias>  (217) 
None

>  <rmsd(smina/fragmenstein)>  (217) 
0.585

>  <smiles>  (217) 
CO[C@H]1C[C@@]2(C[C@@H]2NC(=O)c2nn(C)c3ccc(F)cc23)C1

>  <gnina_score>  (217) 
5.792

>  <inspiration_score>  (217) 
None

>  <energy_score>  (217) 
-5.241539

>  <distance_score>  (217) 
0.805696

>  <gnina_score_min>  (217) 
5.804

>  <inchikey>  (217) 
SIPHUVAYEAEEDF-NKFCBESUSA-N

>  <exports>  (217) 
['/opt/xchem-fragalysis-2/maxwin/BulkDock/OUTPUTS/openbind_a71ev2a_c2_elabs_1LOUU54.sdf', '/opt/xchem-fragalysis-2/maxwin/BulkDock/OUTPUTS/openbind_a71ev2a_c2_elabs_1LSYIDY.sdf']

>  <name>  (217) 
P570327

>  <ref_pdb>  (217) 
A2339a

>  <subsites>  (217) 
None

>  <HIPPO Pose ID>  (217) 
570327

>  <ref_mols>  (217) 
A2339a

>  <HIPPO Compound ID>  (217) 
411232

>  <tags>  (217) 
openbind_a71ev2a_c2_elabs,syndirella_product,openbind_a71ev2a_c2_elabs_scored,BulkDock Fragalysis export,openbind_a71ev2a_c2_elabs_scored_top80percent,openbind_a71ev2a_c2_elabs_scored_top80percent_despaghettified,syndirella_placed

>  <smina_score_min>  (217) 
-6.983

$$$$
P570329
     RDKit          3D

 22 25  0  0  0  0  0  0  0  0999 V2000
    9.5278    8.7205   23.0897 C   0  0  0  0  0  0  0  0  0  0  0  0
    9.2599   10.0486   23.5859 N   0  0  0  0  0  0  0  0  0  0  0  0
   10.0077   11.0613   23.1160 N   0  0  0  0  0  0  0  0  0  0  0  0
    9.5709   12.1381   23.7846 C   0  0  0  0  0  0  0  0  0  0  0  0
   10.1020   13.4758   23.5253 C   0  0  0  0  0  0  0  0  0  0  0  0
   10.0221   14.3211   24.3283 O   0  0  0  0  0  0  0  0  0  0  0  0
   10.6231   13.5208   22.0744 N   0  0  0  0  0  0  0  0  0  0  0  0
   11.0537   14.6020   21.2959 C   0  0  0  0  0  0  0  0  0  0  0  0
    9.8494   15.5750   21.1352 C   0  0  0  0  0  0  0  0  0  0  0  0
    8.7135   15.3699   21.7678 N   0  0  0  0  0  0  0  0  0  0  0  0
    8.0389   16.5367   21.6480 C   0  0  0  0  0  0  0  0  0  0  0  0
    8.7506   17.4404   20.8890 C   0  0  0  0  0  0  0  0  0  0  0  0
    9.8182   16.7351   20.4328 N   0  0  0  0  0  0  0  0  0  0  0  0
   12.0547   14.4936   20.1894 C   0  0  0  0  0  0  0  0  0  0  0  0
   12.4149   15.1959   21.4623 C   0  0  0  0  0  0  0  0  0  0  0  0
    8.4546   11.8230   24.6094 C   0  0  0  0  0  0  0  0  0  0  0  0
    7.5577   12.5484   25.4199 C   0  0  0  0  0  0  0  0  0  0  0  0
    6.5758   11.8506   26.1215 C   0  0  0  0  0  0  0  0  0  0  0  0
    5.7531   12.5161   26.9437 F   0  0  0  0  0  0  0  0  0  0  0  0
    6.4569   10.4721   26.0234 C   0  0  0  0  0  0  0  0  0  0  0  0
    7.3204    9.7482   25.1994 C   0  0  0  0  0  0  0  0  0  0  0  0
    8.3005   10.4457   24.4865 C   0  0  0  0  0  0  0  0  0  0  0  0
  1  2  1  0
  2  3  1  0
  3  4  2  0
  4  5  1  0
  5  6  2  0
  5  7  1  0
  7  8  1  0
  8  9  1  0
  9 10  2  0
 10 11  1  0
 11 12  2  0
 12 13  1  0
  8 14  1  0
 14 15  1  0
  4 16  1  0
 16 17  2  0
 17 18  1  0
 18 19  1  0
 18 20  2  0
 20 21  1  0
 21 22  2  0
 22  2  1  0
 15  8  1  0
 22 16  1  0
 13  9  1  0
M  END
>  <alias>  (218) 
None

>  <rmsd(smina/fragmenstein)>  (218) 
0.693

>  <smiles>  (218) 
Cn1nc(C(=O)NC2(c3ncc[nH]3)CC2)c2cc(F)ccc21

>  <gnina_score>  (218) 
6.166

>  <inspiration_score>  (218) 
None

>  <energy_score>  (218) 
-24.93549

>  <distance_score>  (218) 
0.520092

>  <gnina_score_min>  (218) 
6.086

>  <inchikey>  (218) 
BWTCDVZSQGFCKA-UHFFFAOYSA-N

>  <exports>  (218) 
['/opt/xchem-fragalysis-2/maxwin/BulkDock/OUTPUTS/openbind_a71ev2a_c2_elabs_1LOUU54.sdf', '/opt/xchem-fragalysis-2/maxwin/BulkDock/OUTPUTS/openbind_a71ev2a_c2_elabs_1LSYIDY.sdf']

>  <name>  (218) 
P570329

>  <ref_pdb>  (218) 
A2339a

>  <subsites>  (218) 
None

>  <HIPPO Pose ID>  (218) 
570329

>  <ref_mols>  (218) 
A2339a

>  <HIPPO Compound ID>  (218) 
411235

>  <tags>  (218) 
openbind_a71ev2a_c2_elabs,syndirella_product,openbind_a71ev2a_c2_elabs_scored,BulkDock Fragalysis export,openbind_a71ev2a_c2_elabs_scored_top80percent,openbind_a71ev2a_c2_elabs_scored_6plus,openbind_a71ev2a_c2_elabs_scored_top80percent_despaghettified,syndirella_placed

>  <smina_score_min>  (218) 
-6.736

$$$$
P570331
     RDKit          3D

 22 24  0  0  0  0  0  0  0  0999 V2000
    8.5120   18.4970   20.3679 C   0  0  0  0  0  0  0  0  0  0  0  0
    8.8466   17.2517   21.0206 O   0  0  0  0  0  0  0  0  0  0  0  0
   10.2368   17.0958   20.8352 C   0  0  0  0  0  0  0  0  0  0  0  0
   11.0519   16.0462   21.6068 C   0  0  1  0  0  0  0  0  0  0  0  0
   10.8151   15.9356   23.0016 O   0  0  0  0  0  0  0  0  0  0  0  0
   11.0294   14.6860   20.9562 C   0  0  0  0  0  0  0  0  0  0  0  0
   10.3560   13.6209   21.6627 N   0  0  0  0  0  0  0  0  0  0  0  0
    9.2779   13.6751   22.7794 C   0  0  0  0  0  0  0  0  0  0  0  0
    8.7132   14.5888   23.2447 O   0  0  0  0  0  0  0  0  0  0  0  0
    9.0681   12.3254   23.3431 C   0  0  0  0  0  0  0  0  0  0  0  0
    9.7416   11.2561   22.8854 N   0  0  0  0  0  0  0  0  0  0  0  0
    9.1872   10.2066   23.5186 N   0  0  0  0  0  0  0  0  0  0  0  0
    9.6336    8.8766   23.1714 C   0  0  0  0  0  0  0  0  0  0  0  0
    8.2183   10.5629   24.4248 C   0  0  0  0  0  0  0  0  0  0  0  0
    7.3752    9.8097   25.2500 C   0  0  0  0  0  0  0  0  0  0  0  0
    6.4881   10.4919   26.0838 C   0  0  0  0  0  0  0  0  0  0  0  0
    6.4540   11.8789   26.0842 C   0  0  0  0  0  0  0  0  0  0  0  0
    5.6251   12.5054   26.9303 F   0  0  0  0  0  0  0  0  0  0  0  0
    7.2621   12.6298   25.2308 C   0  0  0  0  0  0  0  0  0  0  0  0
    8.1587   11.9541   24.3779 C   0  0  0  0  0  0  0  0  0  0  0  0
   11.2472   14.6381   19.4478 C   0  0  0  0  0  0  0  0  0  0  0  0
   12.3657   14.2939   20.3544 C   0  0  0  0  0  0  0  0  0  0  0  0
  1  2  1  0
  2  3  1  0
  3  4  1  0
  4  5  1  1
  4  6  1  0
  6  7  1  0
  7  8  1  0
  8  9  2  0
  8 10  1  0
 10 11  2  0
 11 12  1  0
 12 13  1  0
 12 14  1  0
 14 15  2  0
 15 16  1  0
 16 17  2  0
 17 18  1  0
 17 19  1  0
 19 20  2  0
  6 21  1  0
 21 22  1  0
 22  6  1  0
 20 10  1  0
 20 14  1  0
M  END
>  <alias>  (219) 
None

>  <rmsd(smina/fragmenstein)>  (219) 
0.718

>  <smiles>  (219) 
COC[C@@H](O)C1(NC(=O)c2nn(C)c3ccc(F)cc23)CC1

>  <gnina_score>  (219) 
5.361

>  <inspiration_score>  (219) 
None

>  <energy_score>  (219) 
-0.619976

>  <distance_score>  (219) 
0.586995

>  <gnina_score_min>  (219) 
5.293

>  <inchikey>  (219) 
UADVVXUYOYUFKN-GFCCVEGCSA-N

>  <exports>  (219) 
['/opt/xchem-fragalysis-2/maxwin/BulkDock/OUTPUTS/openbind_a71ev2a_c2_elabs_1LOUU54.sdf', '/opt/xchem-fragalysis-2/maxwin/BulkDock/OUTPUTS/openbind_a71ev2a_c2_elabs_1LSYIDY.sdf']

>  <name>  (219) 
P570331

>  <ref_pdb>  (219) 
A2339a

>  <subsites>  (219) 
None

>  <HIPPO Pose ID>  (219) 
570331

>  <ref_mols>  (219) 
A2339a

>  <HIPPO Compound ID>  (219) 
411237

>  <tags>  (219) 
openbind_a71ev2a_c2_elabs,syndirella_product,openbind_a71ev2a_c2_elabs_scored,BulkDock Fragalysis export,openbind_a71ev2a_c2_elabs_scored_top80percent,openbind_a71ev2a_c2_elabs_scored_top80percent_despaghettified,syndirella_placed

>  <smina_score_min>  (219) 
-5.103

$$$$
P570332
     RDKit          3D

 22 25  0  0  0  0  0  0  0  0999 V2000
    9.4689    9.2294   23.2526 C   0  0  0  0  0  0  0  0  0  0  0  0
    8.8794   10.4616   23.7367 N   0  0  0  0  0  0  0  0  0  0  0  0
    9.2903   11.6338   23.2193 N   0  0  0  0  0  0  0  0  0  0  0  0
    8.4900   12.5612   23.7817 C   0  0  0  0  0  0  0  0  0  0  0  0
    8.4916   13.9936   23.4013 C   0  0  0  0  0  0  0  0  0  0  0  0
    7.7040   14.7344   23.8614 O   0  0  0  0  0  0  0  0  0  0  0  0
    9.6565   14.2560   22.4935 N   0  0  0  0  0  0  0  0  0  0  0  0
   10.9500   14.5428   23.3064 C   0  0  0  0  0  0  0  0  0  0  0  0
   12.1928   13.9982   22.6163 C   0  0  0  0  0  0  0  0  0  0  0  0
   12.5306   14.8406   21.4059 C   0  0  0  0  0  0  0  0  0  0  0  0
   11.4684   15.8392   21.2147 C   0  0  2  0  0  0  0  0  0  0  0  0
   10.1120   15.5344   21.8122 C   0  0  1  0  0  0  0  0  0  0  0  0
   10.3264   15.5755   20.3268 C   0  0  0  0  0  0  0  0  0  0  0  0
   10.3340   14.4516   19.5491 F   0  0  0  0  0  0  0  0  0  0  0  0
    9.8384   16.6073   19.5596 F   0  0  0  0  0  0  0  0  0  0  0  0
    7.6711   11.9802   24.7796 C   0  0  0  0  0  0  0  0  0  0  0  0
    6.7380   12.4704   25.7087 C   0  0  0  0  0  0  0  0  0  0  0  0
    6.0352   11.5591   26.4838 C   0  0  0  0  0  0  0  0  0  0  0  0
    5.1666   12.0186   27.3920 F   0  0  0  0  0  0  0  0  0  0  0  0
    6.2145   10.1913   26.3379 C   0  0  0  0  0  0  0  0  0  0  0  0
    7.1549    9.6957   25.4305 C   0  0  0  0  0  0  0  0  0  0  0  0
    7.8940   10.6114   24.6817 C   0  0  0  0  0  0  0  0  0  0  0  0
  1  2  1  0
  2  3  1  0
  3  4  2  0
  4  5  1  0
  5  6  2  0
  5  7  1  0
  7  8  1  0
  8  9  1  0
  9 10  1  0
 11 10  1  1
 11 12  1  0
 12 13  1  0
 13 14  1  0
 13 15  1  0
  4 16  1  0
 16 17  2  0
 17 18  1  0
 18 19  1  0
 18 20  2  0
 20 21  1  0
 21 22  2  0
 22  2  1  0
 12  7  1  1
 22 16  1  0
 13 11  1  0
M  END
>  <alias>  (220) 
None

>  <rmsd(smina/fragmenstein)>  (220) 
0.232

>  <smiles>  (220) 
Cn1nc(C(=O)N2CCC[C@@H]3[C@H]2C3(F)F)c2cc(F)ccc21

>  <gnina_score>  (220) 
5.702

>  <inspiration_score>  (220) 
None

>  <energy_score>  (220) 
-4.656744

>  <distance_score>  (220) 
0.911096

>  <gnina_score_min>  (220) 
5.697

>  <inchikey>  (220) 
JMDIUEXANINHJK-MFKMUULPSA-N

>  <exports>  (220) 
['/opt/xchem-fragalysis-2/maxwin/BulkDock/OUTPUTS/openbind_a71ev2a_c2_elabs_1LOUU54.sdf', '/opt/xchem-fragalysis-2/maxwin/BulkDock/OUTPUTS/openbind_a71ev2a_c2_elabs_1LSYIDY.sdf']

>  <name>  (220) 
P570332

>  <ref_pdb>  (220) 
A2339a

>  <subsites>  (220) 
None

>  <HIPPO Pose ID>  (220) 
570332

>  <ref_mols>  (220) 
A2339a

>  <HIPPO Compound ID>  (220) 
411238

>  <tags>  (220) 
openbind_a71ev2a_c2_elabs,syndirella_product,openbind_a71ev2a_c2_elabs_scored,BulkDock Fragalysis export,openbind_a71ev2a_c2_elabs_scored_top80percent,openbind_a71ev2a_c2_elabs_scored_top80percent_despaghettified,syndirella_placed

>  <smina_score_min>  (220) 
-8.572

$$$$
P570333
     RDKit          3D

 22 24  0  0  0  0  0  0  0  0999 V2000
   12.8296   15.5182   21.0032 C   0  0  0  0  0  0  0  0  0  0  0  0
   12.2636   15.6321   22.2864 O   0  0  0  0  0  0  0  0  0  0  0  0
   11.4011   14.5849   22.6883 C   0  0  0  0  0  0  0  0  0  0  0  0
   11.2160   14.7472   24.2208 C   0  0  0  0  0  0  0  0  0  0  0  0
   12.0493   13.2070   22.5714 C   0  0  0  0  0  0  0  0  0  0  0  0
   10.0211   14.6267   22.0048 C   0  0  0  0  0  0  0  0  0  0  0  0
    9.2605   13.6462   22.6407 N   0  0  0  0  0  0  0  0  0  0  0  0
    8.3162   13.7429   23.8302 C   0  0  0  0  0  0  0  0  0  0  0  0
    7.9532   14.6684   24.4317 O   0  0  0  0  0  0  0  0  0  0  0  0
    8.0161   12.3562   24.1444 C   0  0  0  0  0  0  0  0  0  0  0  0
    8.7131   11.3689   23.5328 N   0  0  0  0  0  0  0  0  0  0  0  0
    8.2986   10.2467   24.1362 N   0  0  0  0  0  0  0  0  0  0  0  0
    8.8964    8.9908   23.7367 C   0  0  0  0  0  0  0  0  0  0  0  0
    7.3447   10.4913   25.0932 C   0  0  0  0  0  0  0  0  0  0  0  0
    6.5620    9.6657   25.8882 C   0  0  0  0  0  0  0  0  0  0  0  0
    5.7343   10.2511   26.8466 C   0  0  0  0  0  0  0  0  0  0  0  0
    5.6775   11.6296   26.9737 C   0  0  0  0  0  0  0  0  0  0  0  0
    4.9041   12.1765   27.9150 F   0  0  0  0  0  0  0  0  0  0  0  0
    6.3959   12.4661   26.1396 C   0  0  0  0  0  0  0  0  0  0  0  0
    7.2164   11.8730   25.1747 C   0  0  0  0  0  0  0  0  0  0  0  0
    9.4808   15.9158   21.4470 C   0  0  0  0  0  0  0  0  0  0  0  0
    9.7871   14.7843   20.5224 C   0  0  0  0  0  0  0  0  0  0  0  0
  1  2  1  0
  2  3  1  0
  3  4  1  0
  3  5  1  0
  3  6  1  0
  6  7  1  0
  7  8  1  0
  8  9  2  0
  8 10  1  0
 10 11  2  0
 11 12  1  0
 12 13  1  0
 12 14  1  0
 14 15  2  0
 15 16  1  0
 16 17  2  0
 17 18  1  0
 17 19  1  0
 19 20  2  0
  6 21  1  0
 21 22  1  0
 22  6  1  0
 20 10  1  0
 20 14  1  0
M  END
>  <alias>  (221) 
None

>  <rmsd(smina/fragmenstein)>  (221) 
0.576

>  <smiles>  (221) 
COC(C)(C)C1(NC(=O)c2nn(C)c3ccc(F)cc23)CC1

>  <gnina_score>  (221) 
5.749

>  <inspiration_score>  (221) 
None

>  <energy_score>  (221) 
-22.074204

>  <distance_score>  (221) 
1.336115

>  <gnina_score_min>  (221) 
5.542

>  <inchikey>  (221) 
SZJWWZIDVXENDZ-UHFFFAOYSA-N

>  <exports>  (221) 
['/opt/xchem-fragalysis-2/maxwin/BulkDock/OUTPUTS/openbind_a71ev2a_c2_elabs_1LOUU54.sdf', '/opt/xchem-fragalysis-2/maxwin/BulkDock/OUTPUTS/openbind_a71ev2a_c2_elabs_1LSYIDY.sdf']

>  <name>  (221) 
P570333

>  <ref_pdb>  (221) 
A2339a

>  <subsites>  (221) 
None

>  <HIPPO Pose ID>  (221) 
570333

>  <ref_mols>  (221) 
A2339a

>  <HIPPO Compound ID>  (221) 
411239

>  <tags>  (221) 
openbind_a71ev2a_c2_elabs,syndirella_product,openbind_a71ev2a_c2_elabs_scored,BulkDock Fragalysis export,openbind_a71ev2a_c2_elabs_scored_top80percent,openbind_a71ev2a_c2_elabs_scored_top80percent_despaghettified,syndirella_placed

>  <smina_score_min>  (221) 
-6.283

$$$$
P570336
     RDKit          3D

 22 25  0  0  0  0  0  0  0  0999 V2000
    9.2050    8.5043   23.4211 C   0  0  0  0  0  0  0  0  0  0  0  0
    8.9303    9.8787   23.7519 N   0  0  0  0  0  0  0  0  0  0  0  0
    9.7049   10.8205   23.2006 N   0  0  0  0  0  0  0  0  0  0  0  0
    9.3819   11.9389   23.8669 C   0  0  0  0  0  0  0  0  0  0  0  0
   10.1904   13.1427   23.7085 C   0  0  0  0  0  0  0  0  0  0  0  0
   10.1318   14.0199   24.4764 O   0  0  0  0  0  0  0  0  0  0  0  0
   10.9865   13.0161   22.3952 N   0  0  0  0  0  0  0  0  0  0  0  0
   11.9173   13.8711   21.8181 C   0  0  1  0  0  0  0  0  0  0  0  0
   12.2154   14.2257   20.4005 C   0  0  0  0  0  0  0  0  0  0  0  0
   11.3161   15.1112   21.2090 C   0  0  2  0  0  0  0  0  0  0  0  0
   11.8821   16.2919   21.8651 C   0  0  0  0  0  0  0  0  0  0  0  0
    9.9050   15.3501   20.6777 C   0  0  0  0  0  0  0  0  0  0  0  0
    9.9455   15.9993   19.3187 C   0  0  0  0  0  0  0  0  0  0  0  0
    8.6759   14.5320   21.0081 C   0  0  0  0  0  0  0  0  0  0  0  0
    8.8355   15.8556   21.6446 C   0  0  0  0  0  0  0  0  0  0  0  0
    8.2484   11.7493   24.6952 C   0  0  0  0  0  0  0  0  0  0  0  0
    7.4448   12.5651   25.5154 C   0  0  0  0  0  0  0  0  0  0  0  0
    6.4396   11.9647   26.2703 C   0  0  0  0  0  0  0  0  0  0  0  0
    5.6958   12.7137   27.0942 F   0  0  0  0  0  0  0  0  0  0  0  0
    6.2187   10.5971   26.2271 C   0  0  0  0  0  0  0  0  0  0  0  0
    6.9988    9.7835   25.4052 C   0  0  0  0  0  0  0  0  0  0  0  0
    8.0030   10.3799   24.6363 C   0  0  0  0  0  0  0  0  0  0  0  0
  1  2  1  0
  2  3  1  0
  3  4  2  0
  4  5  1  0
  5  6  2  0
  5  7  1  0
  8  7  1  6
  8  9  1  0
  9 10  1  0
 10 11  1  1
 10 12  1  0
 12 13  1  0
 12 14  1  0
 14 15  1  0
  4 16  1  0
 16 17  2  0
 17 18  1  0
 18 19  1  0
 18 20  2  0
 20 21  1  0
 21 22  2  0
 22  2  1  0
 10  8  1  0
 15 12  1  0
 22 16  1  0
M  END
>  <alias>  (222) 
None

>  <rmsd(smina/fragmenstein)>  (222) 
0.286

>  <smiles>  (222) 
Cn1nc(C(=O)N[C@H]2C[C@@]2(C)C2(C)CC2)c2cc(F)ccc21

>  <gnina_score>  (222) 
5.985

>  <inspiration_score>  (222) 
None

>  <energy_score>  (222) 
-5.994157

>  <distance_score>  (222) 
0.596439

>  <gnina_score_min>  (222) 
5.952

>  <inchikey>  (222) 
BILJMHXGCBYPMF-SUMWQHHRSA-N

>  <exports>  (222) 
['/opt/xchem-fragalysis-2/maxwin/BulkDock/OUTPUTS/openbind_a71ev2a_c2_elabs_1LOUU54.sdf', '/opt/xchem-fragalysis-2/maxwin/BulkDock/OUTPUTS/openbind_a71ev2a_c2_elabs_1LSYIDY.sdf']

>  <name>  (222) 
P570336

>  <ref_pdb>  (222) 
A2339a

>  <subsites>  (222) 
None

>  <HIPPO Pose ID>  (222) 
570336

>  <ref_mols>  (222) 
A2339a

>  <HIPPO Compound ID>  (222) 
411241

>  <tags>  (222) 
openbind_a71ev2a_c2_elabs,syndirella_product,openbind_a71ev2a_c2_elabs_scored,BulkDock Fragalysis export,openbind_a71ev2a_c2_elabs_scored_top80percent,openbind_a71ev2a_c2_elabs_scored_top80percent_despaghettified,syndirella_placed

>  <smina_score_min>  (222) 
-6.631

$$$$
P570337
     RDKit          3D

 22 25  0  0  0  0  0  0  0  0999 V2000
    9.3057    8.8033   23.4793 C   0  0  0  0  0  0  0  0  0  0  0  0
    8.8597   10.1251   23.8570 N   0  0  0  0  0  0  0  0  0  0  0  0
    9.5012   11.1783   23.3316 N   0  0  0  0  0  0  0  0  0  0  0  0
    8.8858   12.2509   23.8601 C   0  0  0  0  0  0  0  0  0  0  0  0
    9.3231   13.5936   23.4831 C   0  0  0  0  0  0  0  0  0  0  0  0
    8.7307   14.5571   23.7529 O   0  0  0  0  0  0  0  0  0  0  0  0
   10.6339   13.4180   22.7228 N   0  0  0  0  0  0  0  0  0  0  0  0
   11.4918   14.3292   22.2432 C   0  0  0  0  0  0  0  0  0  0  0  0
   12.7660   14.1316   22.0695 N   0  0  0  0  0  0  0  0  0  0  0  0
   13.2683   15.3048   21.5841 N   0  0  0  0  0  0  0  0  0  0  0  0
   12.3163   16.1958   21.4267 N   0  0  0  0  0  0  0  0  0  0  0  0
   11.1987   15.5817   21.7903 N   0  0  0  0  0  0  0  0  0  0  0  0
    9.9313   16.0116   21.2307 C   0  0  0  0  0  0  0  0  0  0  0  0
    9.7950   16.0481   19.7346 C   0  0  0  0  0  0  0  0  0  0  0  0
    8.9533   15.1091   20.5580 C   0  0  0  0  0  0  0  0  0  0  0  0
    7.8781   11.8805   24.7721 C   0  0  0  0  0  0  0  0  0  0  0  0
    6.9903   12.5680   25.6175 C   0  0  0  0  0  0  0  0  0  0  0  0
    6.1260   11.8232   26.4122 C   0  0  0  0  0  0  0  0  0  0  0  0
    5.3078   12.4584   27.2596 F   0  0  0  0  0  0  0  0  0  0  0  0
    6.1043   10.4378   26.3630 C   0  0  0  0  0  0  0  0  0  0  0  0
    6.9737    9.7494   25.5158 C   0  0  0  0  0  0  0  0  0  0  0  0
    7.8719   10.4872   24.7429 C   0  0  0  0  0  0  0  0  0  0  0  0
  1  2  1  0
  2  3  1  0
  3  4  2  0
  4  5  1  0
  5  6  2  0
  5  7  1  0
  7  8  1  0
  8  9  2  0
  9 10  1  0
 10 11  2  0
 11 12  1  0
 12 13  1  0
 13 14  1  0
 14 15  1  0
  4 16  1  0
 16 17  2  0
 17 18  1  0
 18 19  1  0
 18 20  2  0
 20 21  1  0
 21 22  2  0
 22  2  1  0
 12  8  1  0
 15 13  1  0
 22 16  1  0
M  END
>  <alias>  (223) 
None

>  <rmsd(smina/fragmenstein)>  (223) 
0.6

>  <smiles>  (223) 
Cn1nc(C(=O)Nc2nnnn2C2CC2)c2cc(F)ccc21

>  <gnina_score>  (223) 
5.807

>  <inspiration_score>  (223) 
None

>  <energy_score>  (223) 
-23.362793

>  <distance_score>  (223) 
0.741731

>  <gnina_score_min>  (223) 
5.712

>  <inchikey>  (223) 
QNDMWJGMECTSOP-UHFFFAOYSA-N

>  <exports>  (223) 
['/opt/xchem-fragalysis-2/maxwin/BulkDock/OUTPUTS/openbind_a71ev2a_c2_elabs_1LOUU54.sdf', '/opt/xchem-fragalysis-2/maxwin/BulkDock/OUTPUTS/openbind_a71ev2a_c2_elabs_1LSYIDY.sdf']

>  <name>  (223) 
P570337

>  <ref_pdb>  (223) 
A2339a

>  <subsites>  (223) 
None

>  <HIPPO Pose ID>  (223) 
570337

>  <ref_mols>  (223) 
A2339a

>  <HIPPO Compound ID>  (223) 
411243

>  <tags>  (223) 
openbind_a71ev2a_c2_elabs,syndirella_product,openbind_a71ev2a_c2_elabs_scored,BulkDock Fragalysis export,openbind_a71ev2a_c2_elabs_scored_top80percent,openbind_a71ev2a_c2_elabs_scored_top80percent_despaghettified,syndirella_placed

>  <smina_score_min>  (223) 
-7.186

$$$$
P570338
     RDKit          3D

 22 24  0  0  0  0  0  0  0  0999 V2000
   11.4513   14.6743   18.6735 C   0  0  0  0  0  0  0  0  0  0  0  0
   10.3789   14.6861   19.7417 C   0  0  0  0  0  0  0  0  0  0  0  0
   10.6950   15.5072   20.9477 C   0  0  2  0  0  0  0  0  0  0  0  0
    9.5736   16.4729   21.2673 C   0  0  0  0  0  0  0  0  0  0  0  0
    8.2429   15.7717   21.5754 C   0  0  0  0  0  0  0  0  0  0  0  0
    9.4494   17.6555   20.3429 C   0  0  0  0  0  0  0  0  0  0  0  0
   12.1838   15.4462   21.2980 C   0  0  0  0  0  0  0  0  0  0  0  0
   11.2460   15.0286   22.3149 C   0  0  2  0  0  0  0  0  0  0  0  0
   10.6915   13.8538   22.8050 N   0  0  0  0  0  0  0  0  0  0  0  0
    9.8539   13.5966   24.0658 C   0  0  0  0  0  0  0  0  0  0  0  0
    9.5590   14.3135   24.9365 O   0  0  0  0  0  0  0  0  0  0  0  0
    9.3112   12.2427   24.0315 C   0  0  0  0  0  0  0  0  0  0  0  0
    9.8287   11.2696   23.2661 N   0  0  0  0  0  0  0  0  0  0  0  0
    9.1453   10.1674   23.6372 N   0  0  0  0  0  0  0  0  0  0  0  0
    9.5279    8.8914   23.0764 C   0  0  0  0  0  0  0  0  0  0  0  0
    8.1522   10.4277   24.5533 C   0  0  0  0  0  0  0  0  0  0  0  0
    7.2412    9.6136   25.2260 C   0  0  0  0  0  0  0  0  0  0  0  0
    6.3211   10.2078   26.0940 C   0  0  0  0  0  0  0  0  0  0  0  0
    6.3270   11.5811   26.2829 C   0  0  0  0  0  0  0  0  0  0  0  0
    5.4612   12.1319   27.1437 F   0  0  0  0  0  0  0  0  0  0  0  0
    7.2508   12.3941   25.6368 C   0  0  0  0  0  0  0  0  0  0  0  0
    8.1906   11.7960   24.7740 C   0  0  0  0  0  0  0  0  0  0  0  0
  1  2  1  0
  3  2  1  6
  3  4  1  0
  4  5  1  0
  4  6  1  0
  3  7  1  0
  7  8  1  0
  8  9  1  6
  9 10  1  0
 10 11  2  0
 10 12  1  0
 12 13  2  0
 13 14  1  0
 14 15  1  0
 14 16  1  0
 16 17  2  0
 17 18  1  0
 18 19  2  0
 19 20  1  0
 19 21  1  0
 21 22  2  0
  8  3  1  0
 22 12  1  0
 22 16  1  0
M  END
>  <alias>  (224) 
None

>  <rmsd(smina/fragmenstein)>  (224) 
0.17

>  <smiles>  (224) 
CC[C@]1(C(C)C)C[C@@H]1NC(=O)c1nn(C)c2ccc(F)cc12

>  <gnina_score>  (224) 
5.991

>  <inspiration_score>  (224) 
None

>  <energy_score>  (224) 
-7.790315

>  <distance_score>  (224) 
0.491948

>  <gnina_score_min>  (224) 
6.009

>  <inchikey>  (224) 
JXQJXVDQQYWVGV-WMLDXEAASA-N

>  <exports>  (224) 
['/opt/xchem-fragalysis-2/maxwin/BulkDock/OUTPUTS/openbind_a71ev2a_c2_elabs_1LOUU54.sdf', '/opt/xchem-fragalysis-2/maxwin/BulkDock/OUTPUTS/openbind_a71ev2a_c2_elabs_1LSYIDY.sdf']

>  <name>  (224) 
P570338

>  <ref_pdb>  (224) 
A2339a

>  <subsites>  (224) 
None

>  <HIPPO Pose ID>  (224) 
570338

>  <ref_mols>  (224) 
A2339a

>  <HIPPO Compound ID>  (224) 
411244

>  <tags>  (224) 
openbind_a71ev2a_c2_elabs,syndirella_product,openbind_a71ev2a_c2_elabs_scored,BulkDock Fragalysis export,openbind_a71ev2a_c2_elabs_scored_top80percent,openbind_a71ev2a_c2_elabs_scored_6plus,openbind_a71ev2a_c2_elabs_scored_top80percent_despaghettified,syndirella_placed

>  <smina_score_min>  (224) 
-7.292

$$$$
P570343
     RDKit          3D

 22 24  0  0  0  0  0  0  0  0999 V2000
    9.3826    8.5379   23.4119 C   0  0  0  0  0  0  0  0  0  0  0  0
    8.8443    9.8427   23.6998 N   0  0  0  0  0  0  0  0  0  0  0  0
    9.3449   10.8902   23.0227 N   0  0  0  0  0  0  0  0  0  0  0  0
    8.5175   11.8898   23.3556 C   0  0  0  0  0  0  0  0  0  0  0  0
    8.6582   13.2355   22.8526 C   0  0  0  0  0  0  0  0  0  0  0  0
    7.7755   13.9885   22.8251 O   0  0  0  0  0  0  0  0  0  0  0  0
   10.1257   13.4243   22.5108 N   0  0  0  0  0  0  0  0  0  0  0  0
   10.8279   14.5626   22.1635 C   0  0  0  0  0  0  0  0  0  0  0  0
   10.8046   15.4475   23.4101 C   0  0  0  0  0  0  0  0  0  0  0  0
   11.0794   14.7518   24.8138 C   0  0  0  0  0  0  0  0  0  0  0  0
    9.8330   14.0655   25.3921 C   0  0  0  0  0  0  0  0  0  0  0  0
   12.2082   13.7096   24.6312 C   0  0  0  0  0  0  0  0  0  0  0  0
   11.3521   15.7578   25.9656 C   0  0  0  0  0  0  0  0  0  0  0  0
   10.6574   15.2040   20.8126 C   0  0  0  0  0  0  0  0  0  0  0  0
   11.9805   14.6123   21.2051 C   0  0  0  0  0  0  0  0  0  0  0  0
    7.6983   11.5654   24.4586 C   0  0  0  0  0  0  0  0  0  0  0  0
    6.8416   12.2779   25.3227 C   0  0  0  0  0  0  0  0  0  0  0  0
    6.1256   11.5714   26.2768 C   0  0  0  0  0  0  0  0  0  0  0  0
    5.3366   12.2316   27.1330 F   0  0  0  0  0  0  0  0  0  0  0  0
    6.2070   10.1932   26.3468 C   0  0  0  0  0  0  0  0  0  0  0  0
    7.0774    9.4989   25.5016 C   0  0  0  0  0  0  0  0  0  0  0  0
    7.8687   10.2018   24.6027 C   0  0  0  0  0  0  0  0  0  0  0  0
  1  2  1  0
  2  3  1  0
  3  4  2  0
  4  5  1  0
  5  6  2  0
  5  7  1  0
  7  8  1  0
  8  9  1  0
  9 10  1  0
 10 11  1  0
 10 12  1  0
 10 13  1  0
  8 14  1  0
 14 15  1  0
  4 16  1  0
 16 17  2  0
 17 18  1  0
 18 19  1  0
 18 20  2  0
 20 21  1  0
 21 22  2  0
 22  2  1  0
 15  8  1  0
 22 16  1  0
M  END
>  <alias>  (225) 
None

>  <rmsd(smina/fragmenstein)>  (225) 
0.551

>  <smiles>  (225) 
Cn1nc(C(=O)NC2(CC(C)(C)C)CC2)c2cc(F)ccc21

>  <gnina_score>  (225) 
6.075

>  <inspiration_score>  (225) 
None

>  <energy_score>  (225) 
-9.136776

>  <distance_score>  (225) 
0.798257

>  <gnina_score_min>  (225) 
5.938

>  <inchikey>  (225) 
RCIQWVBXOSIDMM-UHFFFAOYSA-N

>  <exports>  (225) 
['/opt/xchem-fragalysis-2/maxwin/BulkDock/OUTPUTS/openbind_a71ev2a_c2_elabs_1LOUU54.sdf', '/opt/xchem-fragalysis-2/maxwin/BulkDock/OUTPUTS/openbind_a71ev2a_c2_elabs_1LSYIDY.sdf']

>  <name>  (225) 
P570343

>  <ref_pdb>  (225) 
A2339a

>  <subsites>  (225) 
None

>  <HIPPO Pose ID>  (225) 
570343

>  <ref_mols>  (225) 
A2339a

>  <HIPPO Compound ID>  (225) 
411248

>  <tags>  (225) 
openbind_a71ev2a_c2_elabs,syndirella_product,openbind_a71ev2a_c2_elabs_scored,BulkDock Fragalysis export,openbind_a71ev2a_c2_elabs_scored_top80percent,openbind_a71ev2a_c2_elabs_scored_top80percent_despaghettified,syndirella_placed

>  <smina_score_min>  (225) 
-4.834

$$$$
P570349
     RDKit          3D

 22 24  0  0  0  0  0  0  0  0999 V2000
   12.3380   14.5617   20.8308 C   0  0  0  0  0  0  0  0  0  0  0  0
   10.8736   14.9838   20.9785 C   0  0  1  0  0  0  0  0  0  0  0  0
   10.6531   15.2541   22.4644 C   0  0  0  0  0  0  0  0  0  0  0  0
   10.1569   14.0665   23.0783 N   0  0  0  0  0  0  0  0  0  0  0  0
    9.2963   13.8799   24.3130 C   0  0  0  0  0  0  0  0  0  0  0  0
    8.9080   14.6551   25.0847 O   0  0  0  0  0  0  0  0  0  0  0  0
    8.9130   12.4651   24.3364 C   0  0  0  0  0  0  0  0  0  0  0  0
    9.5310   11.5452   23.5655 N   0  0  0  0  0  0  0  0  0  0  0  0
    8.9198   10.3853   23.8803 N   0  0  0  0  0  0  0  0  0  0  0  0
    9.3958    9.1581   23.2750 C   0  0  0  0  0  0  0  0  0  0  0  0
    7.9064   10.5474   24.7960 C   0  0  0  0  0  0  0  0  0  0  0  0
    7.0359    9.6540   25.4164 C   0  0  0  0  0  0  0  0  0  0  0  0
    6.0887   10.1583   26.3118 C   0  0  0  0  0  0  0  0  0  0  0  0
    6.0208   11.5200   26.5656 C   0  0  0  0  0  0  0  0  0  0  0  0
    5.1242   11.9873   27.4414 F   0  0  0  0  0  0  0  0  0  0  0  0
    6.8900   12.4137   25.9595 C   0  0  0  0  0  0  0  0  0  0  0  0
    7.8570   11.9064   25.0770 C   0  0  0  0  0  0  0  0  0  0  0  0
   10.5779   16.1080   20.0918 N   0  0  0  0  0  0  0  0  0  0  0  0
   10.5661   15.6029   18.7187 C   0  0  0  0  0  0  0  0  0  0  0  0
    9.3350   16.8541   20.4135 C   0  0  0  0  0  0  0  0  0  0  0  0
    9.0149   18.1424   19.6622 C   0  0  0  0  0  0  0  0  0  0  0  0
    9.4028   18.1976   21.0582 C   0  0  0  0  0  0  0  0  0  0  0  0
  2  1  1  1
  2  3  1  0
  3  4  1  0
  4  5  1  0
  5  6  2  0
  5  7  1  0
  7  8  2  0
  8  9  1  0
  9 10  1  0
  9 11  1  0
 11 12  2  0
 12 13  1  0
 13 14  2  0
 14 15  1  0
 14 16  1  0
 16 17  2  0
  2 18  1  0
 18 19  1  0
 18 20  1  0
 20 21  1  0
 21 22  1  0
 17  7  1  0
 22 20  1  0
 17 11  1  0
M  END
>  <alias>  (226) 
None

>  <rmsd(smina/fragmenstein)>  (226) 
0.554

>  <smiles>  (226) 
C[C@@H](CNC(=O)c1nn(C)c2ccc(F)cc12)N(C)C1CC1

>  <gnina_score>  (226) 
5.7

>  <inspiration_score>  (226) 
None

>  <energy_score>  (226) 
-50.831547

>  <distance_score>  (226) 
0.757673

>  <gnina_score_min>  (226) 
5.906

>  <inchikey>  (226) 
PJEHQOSFSNLNPG-JTQLQIEISA-N

>  <exports>  (226) 
['/opt/xchem-fragalysis-2/maxwin/BulkDock/OUTPUTS/openbind_a71ev2a_c2_elabs_1LOUU54.sdf', '/opt/xchem-fragalysis-2/maxwin/BulkDock/OUTPUTS/openbind_a71ev2a_c2_elabs_1LSYIDY.sdf']

>  <name>  (226) 
P570349

>  <ref_pdb>  (226) 
A2339a

>  <subsites>  (226) 
None

>  <HIPPO Pose ID>  (226) 
570349

>  <ref_mols>  (226) 
A2339a

>  <HIPPO Compound ID>  (226) 
411257

>  <tags>  (226) 
openbind_a71ev2a_c2_elabs,syndirella_product,openbind_a71ev2a_c2_elabs_scored,BulkDock Fragalysis export,openbind_a71ev2a_c2_elabs_scored_top80percent,openbind_a71ev2a_c2_elabs_scored_top80percent_despaghettified,syndirella_placed

>  <smina_score_min>  (226) 
-5.238

$$$$
P570350
     RDKit          3D

 22 24  0  0  0  0  0  0  0  0999 V2000
    9.0460   18.1457   20.7446 C   0  0  0  0  0  0  0  0  0  0  0  0
    9.0962   16.7339   20.8813 O   0  0  0  0  0  0  0  0  0  0  0  0
    9.8042   16.1388   19.8872 C   0  0  0  0  0  0  0  0  0  0  0  0
   10.1842   16.6809   18.8635 O   0  0  0  0  0  0  0  0  0  0  0  0
   10.0890   14.7210   20.2067 C   0  0  0  0  0  0  0  0  0  0  0  0
   10.8655   14.5248   21.4715 C   0  0  0  0  0  0  0  0  0  0  0  0
   10.3366   13.5255   22.3111 N   0  0  0  0  0  0  0  0  0  0  0  0
    9.4484   13.6377   23.5597 C   0  0  0  0  0  0  0  0  0  0  0  0
    9.0745   14.5774   24.1395 O   0  0  0  0  0  0  0  0  0  0  0  0
    9.0175   12.2780   23.8944 C   0  0  0  0  0  0  0  0  0  0  0  0
    9.5696   11.2174   23.2757 N   0  0  0  0  0  0  0  0  0  0  0  0
    8.9451   10.1542   23.8074 N   0  0  0  0  0  0  0  0  0  0  0  0
    9.3853    8.8374   23.4060 C   0  0  0  0  0  0  0  0  0  0  0  0
    7.9647   10.4991   24.7079 C   0  0  0  0  0  0  0  0  0  0  0  0
    7.0534    9.7474   25.4531 C   0  0  0  0  0  0  0  0  0  0  0  0
    6.1774   10.4191   26.3074 C   0  0  0  0  0  0  0  0  0  0  0  0
    6.2133   11.8020   26.3993 C   0  0  0  0  0  0  0  0  0  0  0  0
    5.3863   12.4209   27.2504 F   0  0  0  0  0  0  0  0  0  0  0  0
    7.1053   12.5592   25.6471 C   0  0  0  0  0  0  0  0  0  0  0  0
    8.0000   11.8888   24.7933 C   0  0  0  0  0  0  0  0  0  0  0  0
   12.3612   14.6144   21.3933 C   0  0  0  0  0  0  0  0  0  0  0  0
   11.6048   15.6777   22.0962 C   0  0  0  0  0  0  0  0  0  0  0  0
  1  2  1  0
  2  3  1  0
  3  4  2  0
  3  5  1  0
  5  6  1  0
  6  7  1  0
  7  8  1  0
  8  9  2  0
  8 10  1  0
 10 11  2  0
 11 12  1  0
 12 13  1  0
 12 14  1  0
 14 15  2  0
 15 16  1  0
 16 17  2  0
 17 18  1  0
 17 19  1  0
 19 20  2  0
  6 21  1  0
 21 22  1  0
 22  6  1  0
 20 10  1  0
 20 14  1  0
M  END
>  <alias>  (227) 
None

>  <rmsd(smina/fragmenstein)>  (227) 
0.682

>  <smiles>  (227) 
COC(=O)CC1(NC(=O)c2nn(C)c3ccc(F)cc23)CC1

>  <gnina_score>  (227) 
5.787

>  <inspiration_score>  (227) 
None

>  <energy_score>  (227) 
-40.596721

>  <distance_score>  (227) 
0.738569

>  <gnina_score_min>  (227) 
5.973

>  <inchikey>  (227) 
MACWPJPMXJDFPB-UHFFFAOYSA-N

>  <exports>  (227) 
['/opt/xchem-fragalysis-2/maxwin/BulkDock/OUTPUTS/openbind_a71ev2a_c2_elabs_1LOUU54.sdf', '/opt/xchem-fragalysis-2/maxwin/BulkDock/OUTPUTS/openbind_a71ev2a_c2_elabs_1LSYIDY.sdf']

>  <name>  (227) 
P570350

>  <ref_pdb>  (227) 
A2339a

>  <subsites>  (227) 
None

>  <HIPPO Pose ID>  (227) 
570350

>  <ref_mols>  (227) 
A2339a

>  <HIPPO Compound ID>  (227) 
411259

>  <tags>  (227) 
openbind_a71ev2a_c2_elabs,syndirella_product,openbind_a71ev2a_c2_elabs_scored,BulkDock Fragalysis export,openbind_a71ev2a_c2_elabs_scored_top80percent,openbind_a71ev2a_c2_elabs_scored_top80percent_despaghettified,syndirella_placed

>  <smina_score_min>  (227) 
-7.509

$$$$
P570351
     RDKit          3D

 22 24  0  0  0  0  0  0  0  0999 V2000
    9.2511    8.6635   23.4915 C   0  0  0  0  0  0  0  0  0  0  0  0
    8.8008    9.9826   23.8633 N   0  0  0  0  0  0  0  0  0  0  0  0
    9.3733   11.0379   23.2596 N   0  0  0  0  0  0  0  0  0  0  0  0
    8.7516   12.0924   23.8098 C   0  0  0  0  0  0  0  0  0  0  0  0
    8.9981   13.4399   23.3470 C   0  0  0  0  0  0  0  0  0  0  0  0
    8.5949   14.3618   23.9341 O   0  0  0  0  0  0  0  0  0  0  0  0
    9.8342   13.3663   22.0602 N   0  0  0  0  0  0  0  0  0  0  0  0
   10.4139   14.3794   21.2982 C   0  0  0  0  0  0  0  0  0  0  0  0
   11.3375   15.0805   22.2068 C   0  0  0  0  0  0  0  0  0  0  0  0
   11.8301   16.3416   21.6665 C   0  0  0  0  0  0  0  0  0  0  0  0
   12.1776   17.0598   22.7243 F   0  0  0  0  0  0  0  0  0  0  0  0
   12.9199   16.1532   20.9126 F   0  0  0  0  0  0  0  0  0  0  0  0
   10.9122   17.0643   21.0171 F   0  0  0  0  0  0  0  0  0  0  0  0
   10.6600   14.5482   19.8238 C   0  0  0  0  0  0  0  0  0  0  0  0
    9.3883   15.0630   20.4080 C   0  0  0  0  0  0  0  0  0  0  0  0
    7.8330   11.7270   24.8089 C   0  0  0  0  0  0  0  0  0  0  0  0
    6.9645   12.4192   25.6733 C   0  0  0  0  0  0  0  0  0  0  0  0
    6.1122   11.6829   26.4833 C   0  0  0  0  0  0  0  0  0  0  0  0
    5.3067   12.3237   27.3383 F   0  0  0  0  0  0  0  0  0  0  0  0
    6.0861   10.3007   26.4278 C   0  0  0  0  0  0  0  0  0  0  0  0
    6.9469    9.6162   25.5669 C   0  0  0  0  0  0  0  0  0  0  0  0
    7.8375   10.3408   24.7792 C   0  0  0  0  0  0  0  0  0  0  0  0
  1  2  1  0
  2  3  1  0
  3  4  2  0
  4  5  1  0
  5  6  2  0
  5  7  1  0
  7  8  1  0
  8  9  1  0
  9 10  1  0
 10 11  1  0
 10 12  1  0
 10 13  1  0
  8 14  1  0
 14 15  1  0
  4 16  1  0
 16 17  2  0
 17 18  1  0
 18 19  1  0
 18 20  2  0
 20 21  1  0
 21 22  2  0
 22  2  1  0
 15  8  1  0
 22 16  1  0
M  END
>  <alias>  (228) 
None

>  <rmsd(smina/fragmenstein)>  (228) 
0.909

>  <smiles>  (228) 
Cn1nc(C(=O)NC2(CC(F)(F)F)CC2)c2cc(F)ccc21

>  <gnina_score>  (228) 
5.757

>  <inspiration_score>  (228) 
None

>  <energy_score>  (228) 
-6.206773

>  <distance_score>  (228) 
0.784821

>  <gnina_score_min>  (228) 
5.704

>  <inchikey>  (228) 
LQHIPRASBZTXBY-UHFFFAOYSA-N

>  <exports>  (228) 
['/opt/xchem-fragalysis-2/maxwin/BulkDock/OUTPUTS/openbind_a71ev2a_c2_elabs_1LOUU54.sdf', '/opt/xchem-fragalysis-2/maxwin/BulkDock/OUTPUTS/openbind_a71ev2a_c2_elabs_1LSYIDY.sdf']

>  <name>  (228) 
P570351

>  <ref_pdb>  (228) 
A2339a

>  <subsites>  (228) 
None

>  <HIPPO Pose ID>  (228) 
570351

>  <ref_mols>  (228) 
A2339a

>  <HIPPO Compound ID>  (228) 
411260

>  <tags>  (228) 
openbind_a71ev2a_c2_elabs,syndirella_product,openbind_a71ev2a_c2_elabs_scored,BulkDock Fragalysis export,openbind_a71ev2a_c2_elabs_scored_top80percent,openbind_a71ev2a_c2_elabs_scored_top80percent_despaghettified,syndirella_placed

>  <smina_score_min>  (228) 
-7.051

$$$$
P570352
     RDKit          3D

 22 25  0  0  0  0  0  0  0  0999 V2000
    9.3883    8.6956   23.4131 C   0  0  0  0  0  0  0  0  0  0  0  0
    9.0398   10.0517   23.7633 N   0  0  0  0  0  0  0  0  0  0  0  0
    9.7438   11.0457   23.2029 N   0  0  0  0  0  0  0  0  0  0  0  0
    9.3047   12.1595   23.8152 C   0  0  0  0  0  0  0  0  0  0  0  0
    9.8810   13.4643   23.4699 C   0  0  0  0  0  0  0  0  0  0  0  0
    9.6294   14.4300   24.0684 O   0  0  0  0  0  0  0  0  0  0  0  0
   10.7125   13.2718   22.2002 N   0  0  0  0  0  0  0  0  0  0  0  0
   11.2997   14.1789   21.3885 C   0  0  0  0  0  0  0  0  0  0  0  0
   12.4518   13.9491   20.7990 N   0  0  0  0  0  0  0  0  0  0  0  0
   12.5202   14.6714   19.6425 N   0  0  0  0  0  0  0  0  0  0  0  0
   11.4077   15.3497   19.5514 C   0  0  0  0  0  0  0  0  0  0  0  0
   10.6544   15.1475   20.6672 N   0  0  0  0  0  0  0  0  0  0  0  0
    9.2492   15.5688   20.6653 C   0  0  0  0  0  0  0  0  0  0  0  0
    8.3688   15.9505   21.8079 C   0  0  0  0  0  0  0  0  0  0  0  0
    8.9805   17.0300   20.9737 C   0  0  0  0  0  0  0  0  0  0  0  0
    8.2256   11.8778   24.6926 C   0  0  0  0  0  0  0  0  0  0  0  0
    7.3630   12.6340   25.5100 C   0  0  0  0  0  0  0  0  0  0  0  0
    6.4019   11.9631   26.2643 C   0  0  0  0  0  0  0  0  0  0  0  0
    5.6053   12.6591   27.0853 F   0  0  0  0  0  0  0  0  0  0  0  0
    6.2677   10.5838   26.2118 C   0  0  0  0  0  0  0  0  0  0  0  0
    7.1039    9.8258   25.3920 C   0  0  0  0  0  0  0  0  0  0  0  0
    8.0770   10.4923   24.6397 C   0  0  0  0  0  0  0  0  0  0  0  0
  1  2  1  0
  2  3  1  0
  3  4  2  0
  4  5  1  0
  5  6  2  0
  5  7  1  0
  7  8  1  0
  8  9  2  0
  9 10  1  0
 10 11  2  0
 11 12  1  0
 12 13  1  0
 13 14  1  0
 14 15  1  0
  4 16  1  0
 16 17  2  0
 17 18  1  0
 18 19  1  0
 18 20  2  0
 20 21  1  0
 21 22  2  0
 22  2  1  0
 12  8  1  0
 15 13  1  0
 22 16  1  0
M  END
>  <alias>  (229) 
None

>  <rmsd(smina/fragmenstein)>  (229) 
0.617

>  <smiles>  (229) 
Cn1nc(C(=O)Nc2nncn2C2CC2)c2cc(F)ccc21

>  <gnina_score>  (229) 
6.059

>  <inspiration_score>  (229) 
None

>  <energy_score>  (229) 
-11.948305

>  <distance_score>  (229) 
0.390732

>  <gnina_score_min>  (229) 
5.939

>  <inchikey>  (229) 
ZWELIZUHYDWMLS-UHFFFAOYSA-N

>  <exports>  (229) 
['/opt/xchem-fragalysis-2/maxwin/BulkDock/OUTPUTS/openbind_a71ev2a_c2_elabs_1LOUU54.sdf', '/opt/xchem-fragalysis-2/maxwin/BulkDock/OUTPUTS/openbind_a71ev2a_c2_elabs_1LSYIDY.sdf']

>  <name>  (229) 
P570352

>  <ref_pdb>  (229) 
A2339a

>  <subsites>  (229) 
None

>  <HIPPO Pose ID>  (229) 
570352

>  <ref_mols>  (229) 
A2339a

>  <HIPPO Compound ID>  (229) 
411263

>  <tags>  (229) 
openbind_a71ev2a_c2_elabs,syndirella_product,openbind_a71ev2a_c2_elabs_scored,BulkDock Fragalysis export,openbind_a71ev2a_c2_elabs_scored_top80percent,openbind_a71ev2a_c2_elabs_scored_top80percent_despaghettified,syndirella_placed

>  <smina_score_min>  (229) 
-6.208

$$$$
P570353
     RDKit          3D

 22 25  0  0  0  0  0  0  0  0999 V2000
    9.5053    9.0309   23.1822 C   0  0  0  0  0  0  0  0  0  0  0  0
    9.0651   10.2949   23.7312 N   0  0  0  0  0  0  0  0  0  0  0  0
    9.7233   11.4197   23.3801 N   0  0  0  0  0  0  0  0  0  0  0  0
    9.1518   12.3799   24.1324 C   0  0  0  0  0  0  0  0  0  0  0  0
    9.6638   13.7528   24.1794 C   0  0  0  0  0  0  0  0  0  0  0  0
    9.2697   14.5105   24.9714 O   0  0  0  0  0  0  0  0  0  0  0  0
   10.6771   13.9381   23.0452 N   0  0  0  0  0  0  0  0  0  0  0  0
   11.3323   15.0817   22.5950 C   0  0  1  0  0  0  0  0  0  0  0  0
   12.5022   15.2551   21.7204 C   0  0  0  0  0  0  0  0  0  0  0  0
   11.1289   15.4390   21.1391 C   0  0  0  0  0  0  0  0  0  0  0  0
   10.8733   14.4517   20.0717 C   0  0  0  0  0  0  0  0  0  0  0  0
   10.7861   15.1602   18.7526 C   0  0  0  0  0  0  0  0  0  0  0  0
    9.6224   15.9729   18.7928 O   0  0  0  0  0  0  0  0  0  0  0  0
    9.7787   17.0607   19.6927 C   0  0  0  0  0  0  0  0  0  0  0  0
   10.3110   16.6822   21.0460 C   0  0  0  0  0  0  0  0  0  0  0  0
    8.0498   11.8861   24.8692 C   0  0  0  0  0  0  0  0  0  0  0  0
    7.0982   12.4455   25.7422 C   0  0  0  0  0  0  0  0  0  0  0  0
    6.2032   11.5972   26.3815 C   0  0  0  0  0  0  0  0  0  0  0  0
    5.3269   12.1134   27.2520 F   0  0  0  0  0  0  0  0  0  0  0  0
    6.2325   10.2266   26.1733 C   0  0  0  0  0  0  0  0  0  0  0  0
    7.1644    9.6677   25.2949 C   0  0  0  0  0  0  0  0  0  0  0  0
    8.0553   10.5174   24.6376 C   0  0  0  0  0  0  0  0  0  0  0  0
  1  2  1  0
  2  3  1  0
  3  4  2  0
  4  5  1  0
  5  6  2  0
  5  7  1  0
  8  7  1  6
  8  9  1  0
  9 10  1  0
 10 11  1  0
 11 12  1  0
 12 13  1  0
 13 14  1  0
 14 15  1  0
  4 16  1  0
 16 17  2  0
 17 18  1  0
 18 19  1  0
 18 20  2  0
 20 21  1  0
 21 22  2  0
 22  2  1  0
 10  8  1  0
 22 16  1  0
 15 10  1  0
M  END
>  <alias>  (230) 
None

>  <rmsd(smina/fragmenstein)>  (230) 
0.133

>  <smiles>  (230) 
Cn1nc(C(=O)N[C@H]2CC23CCOCC3)c2cc(F)ccc21

>  <gnina_score>  (230) 
5.894

>  <inspiration_score>  (230) 
None

>  <energy_score>  (230) 
-22.57545

>  <distance_score>  (230) 
0.65295

>  <gnina_score_min>  (230) 
5.917

>  <inchikey>  (230) 
MOPRKQXMBCDBKY-ZDUSSCGKSA-N

>  <exports>  (230) 
['/opt/xchem-fragalysis-2/maxwin/BulkDock/OUTPUTS/openbind_a71ev2a_c2_elabs_1LOUU54.sdf', '/opt/xchem-fragalysis-2/maxwin/BulkDock/OUTPUTS/openbind_a71ev2a_c2_elabs_1LSYIDY.sdf']

>  <name>  (230) 
P570353

>  <ref_pdb>  (230) 
A2339a

>  <subsites>  (230) 
None

>  <HIPPO Pose ID>  (230) 
570353

>  <ref_mols>  (230) 
A2339a

>  <HIPPO Compound ID>  (230) 
411266

>  <tags>  (230) 
openbind_a71ev2a_c2_elabs,syndirella_product,openbind_a71ev2a_c2_elabs_scored,BulkDock Fragalysis export,openbind_a71ev2a_c2_elabs_scored_top80percent,openbind_a71ev2a_c2_elabs_scored_top80percent_despaghettified,syndirella_placed

>  <smina_score_min>  (230) 
-6.728

$$$$
P570354
     RDKit          3D

 22 25  0  0  0  0  0  0  0  0999 V2000
    9.4428    9.2299   23.3089 C   0  0  0  0  0  0  0  0  0  0  0  0
    8.8635   10.4580   23.8164 N   0  0  0  0  0  0  0  0  0  0  0  0
    9.2699   11.6399   23.3036 N   0  0  0  0  0  0  0  0  0  0  0  0
    8.5088   12.5564   23.9425 C   0  0  0  0  0  0  0  0  0  0  0  0
    8.4937   13.9681   23.5399 C   0  0  0  0  0  0  0  0  0  0  0  0
    7.9221   14.7911   24.1288 O   0  0  0  0  0  0  0  0  0  0  0  0
    9.2935   14.0530   22.2477 N   0  0  0  0  0  0  0  0  0  0  0  0
    9.4774   15.0799   21.3991 C   0  0  0  0  0  0  0  0  0  0  0  0
    8.8706   16.2353   21.3761 N   0  0  0  0  0  0  0  0  0  0  0  0
    9.4480   16.9257   20.3421 C   0  0  0  0  0  0  0  0  0  0  0  0
   10.3405   16.1290   19.6621 C   0  0  0  0  0  0  0  0  0  0  0  0
   10.4844   15.0533   20.4782 N   0  0  0  0  0  0  0  0  0  0  0  0
   11.8121   14.5050   20.7998 C   0  0  0  0  0  0  0  0  0  0  0  0
   12.2552   14.1853   22.2163 C   0  0  0  0  0  0  0  0  0  0  0  0
   12.7577   15.4138   21.5337 C   0  0  0  0  0  0  0  0  0  0  0  0
    7.6845   11.9660   24.9171 C   0  0  0  0  0  0  0  0  0  0  0  0
    6.7425   12.4486   25.8386 C   0  0  0  0  0  0  0  0  0  0  0  0
    6.0059   11.5282   26.5678 C   0  0  0  0  0  0  0  0  0  0  0  0
    5.1246   11.9770   27.4681 F   0  0  0  0  0  0  0  0  0  0  0  0
    6.1645   10.1625   26.3831 C   0  0  0  0  0  0  0  0  0  0  0  0
    7.1092    9.6767   25.4740 C   0  0  0  0  0  0  0  0  0  0  0  0
    7.8763   10.5983   24.7629 C   0  0  0  0  0  0  0  0  0  0  0  0
  1  2  1  0
  2  3  1  0
  3  4  2  0
  4  5  1  0
  5  6  2  0
  5  7  1  0
  7  8  1  0
  8  9  2  0
  9 10  1  0
 10 11  2  0
 11 12  1  0
 12 13  1  0
 13 14  1  0
 14 15  1  0
  4 16  1  0
 16 17  2  0
 17 18  1  0
 18 19  1  0
 18 20  2  0
 20 21  1  0
 21 22  2  0
 22  2  1  0
 12  8  1  0
 15 13  1  0
 22 16  1  0
M  END
>  <alias>  (231) 
None

>  <rmsd(smina/fragmenstein)>  (231) 
0.396

>  <smiles>  (231) 
Cn1nc(C(=O)Nc2nccn2C2CC2)c2cc(F)ccc21

>  <gnina_score>  (231) 
6.077

>  <inspiration_score>  (231) 
None

>  <energy_score>  (231) 
-37.226071

>  <distance_score>  (231) 
1.135237

>  <gnina_score_min>  (231) 
6.037

>  <inchikey>  (231) 
AEEOODHOUZGSKA-UHFFFAOYSA-N

>  <exports>  (231) 
['/opt/xchem-fragalysis-2/maxwin/BulkDock/OUTPUTS/openbind_a71ev2a_c2_elabs_1LOUU54.sdf', '/opt/xchem-fragalysis-2/maxwin/BulkDock/OUTPUTS/openbind_a71ev2a_c2_elabs_1LSYIDY.sdf']

>  <name>  (231) 
P570354

>  <ref_pdb>  (231) 
A2339a

>  <subsites>  (231) 
None

>  <HIPPO Pose ID>  (231) 
570354

>  <ref_mols>  (231) 
A2339a

>  <HIPPO Compound ID>  (231) 
411268

>  <tags>  (231) 
openbind_a71ev2a_c2_elabs,syndirella_product,openbind_a71ev2a_c2_elabs_scored,BulkDock Fragalysis export,openbind_a71ev2a_c2_elabs_scored_top80percent,openbind_a71ev2a_c2_elabs_scored_6plus,openbind_a71ev2a_c2_elabs_scored_top80percent_despaghettified,syndirella_placed

>  <smina_score_min>  (231) 
-7.458

$$$$
P570358
     RDKit          3D

 22 26  0  0  0  0  0  0  0  0999 V2000
    8.8229    8.7021   23.7305 C   0  0  0  0  0  0  0  0  0  0  0  0
    8.4184    9.9809   24.2610 N   0  0  0  0  0  0  0  0  0  0  0  0
    9.1111   11.0503   23.8648 N   0  0  0  0  0  0  0  0  0  0  0  0
    8.6347   12.0442   24.6341 C   0  0  0  0  0  0  0  0  0  0  0  0
    9.1159   13.3877   24.4682 C   0  0  0  0  0  0  0  0  0  0  0  0
    8.9740   14.2575   25.2228 O   0  0  0  0  0  0  0  0  0  0  0  0
    9.7245   13.3783   23.0832 N   0  0  0  0  0  0  0  0  0  0  0  0
   10.1876   14.4008   22.3123 C   0  0  2  0  0  0  0  0  0  0  0  0
    9.9723   14.3445   20.8454 C   0  0  1  0  0  0  0  0  0  0  0  0
   10.0245   15.5143   19.9191 C   0  0  1  0  0  0  0  0  0  0  0  0
   10.1137   16.7958   20.7503 C   0  0  0  0  0  0  0  0  0  0  0  0
   11.4899   16.6109   21.4556 C   0  0  0  0  0  0  0  0  0  0  0  0
   12.0834   15.3785   20.7681 C   0  0  2  0  0  0  0  0  0  0  0  0
   11.4375   15.3559   19.3704 C   0  0  0  0  0  0  0  0  0  0  0  0
   11.3687   14.2280   21.4150 C   0  0  1  0  0  0  0  0  0  0  0  0
    7.5673   11.6538   25.4294 C   0  0  0  0  0  0  0  0  0  0  0  0
    6.7062   12.3259   26.3064 C   0  0  0  0  0  0  0  0  0  0  0  0
    5.7453   11.5824   26.9601 C   0  0  0  0  0  0  0  0  0  0  0  0
    4.9408   12.1953   27.8322 F   0  0  0  0  0  0  0  0  0  0  0  0
    5.6108   10.2248   26.7341 C   0  0  0  0  0  0  0  0  0  0  0  0
    6.4306    9.5762   25.8077 C   0  0  0  0  0  0  0  0  0  0  0  0
    7.4326   10.2966   25.1702 C   0  0  0  0  0  0  0  0  0  0  0  0
  1  2  1  0
  2  3  1  0
  3  4  2  0
  4  5  1  0
  5  6  2  0
  5  7  1  0
  8  7  1  1
  8  9  1  0
  9 10  1  6
 10 11  1  1
 11 12  1  0
 13 12  1  1
 13 14  1  0
 15 13  1  6
  4 16  1  0
 16 17  2  0
 17 18  1  0
 18 19  1  0
 18 20  2  0
 20 21  1  0
 21 22  2  0
 22  2  1  0
 15  8  1  0
 22 16  1  0
 15  9  1  0
 14 10  1  0
M  END
>  <alias>  (232) 
None

>  <rmsd(smina/fragmenstein)>  (232) 
0.572

>  <smiles>  (232) 
Cn1nc(C(=O)N[C@@H]2[C@H]3[C@H]4CC[C@H](C4)[C@@H]23)c2cc(F)ccc21

>  <gnina_score>  (232) 
5.671

>  <inspiration_score>  (232) 
None

>  <energy_score>  (232) 
-12.76514

>  <distance_score>  (232) 
1.134547

>  <gnina_score_min>  (232) 
5.57

>  <inchikey>  (232) 
ZZOQQEIPFQPXKJ-NCKWOPCVSA-N

>  <exports>  (232) 
['/opt/xchem-fragalysis-2/maxwin/BulkDock/OUTPUTS/openbind_a71ev2a_c2_elabs_1LOUU54.sdf', '/opt/xchem-fragalysis-2/maxwin/BulkDock/OUTPUTS/openbind_a71ev2a_c2_elabs_1LSYIDY.sdf']

>  <name>  (232) 
P570358

>  <ref_pdb>  (232) 
A2339a

>  <subsites>  (232) 
None

>  <HIPPO Pose ID>  (232) 
570358

>  <ref_mols>  (232) 
A2339a

>  <HIPPO Compound ID>  (232) 
411270

>  <tags>  (232) 
openbind_a71ev2a_c2_elabs,syndirella_product,openbind_a71ev2a_c2_elabs_scored,BulkDock Fragalysis export,openbind_a71ev2a_c2_elabs_scored_top80percent,openbind_a71ev2a_c2_elabs_scored_top80percent_despaghettified,syndirella_placed

>  <smina_score_min>  (232) 
-6.818

$$$$
P570362
     RDKit          3D

 22 25  0  0  0  0  0  0  0  0999 V2000
    9.0983    8.7046   23.5531 C   0  0  0  0  0  0  0  0  0  0  0  0
    8.6627   10.0261   23.9353 N   0  0  0  0  0  0  0  0  0  0  0  0
    9.2868   11.0779   23.3853 N   0  0  0  0  0  0  0  0  0  0  0  0
    8.7360   12.1395   24.0000 C   0  0  0  0  0  0  0  0  0  0  0  0
    9.2278   13.4805   23.7505 C   0  0  0  0  0  0  0  0  0  0  0  0
    8.8030   14.4158   24.2972 O   0  0  0  0  0  0  0  0  0  0  0  0
   10.3951   13.3484   22.7742 N   0  0  0  0  0  0  0  0  0  0  0  0
   11.2053   14.3151   22.2048 C   0  0  0  0  0  0  0  0  0  0  0  0
   11.0052   14.6191   20.7384 C   0  0  0  0  0  0  0  0  0  0  0  0
    9.8171   15.1830   20.2442 C   0  0  0  0  0  0  0  0  0  0  0  0
    9.9710   15.4350   18.9117 C   0  0  0  0  0  0  0  0  0  0  0  0
   11.5266   15.0652   18.3384 S   0  0  0  0  0  0  0  0  0  0  0  0
   12.0176   14.4968   19.8299 C   0  0  0  0  0  0  0  0  0  0  0  0
   12.5498   14.5512   22.7910 C   0  0  0  0  0  0  0  0  0  0  0  0
   11.4483   15.5472   22.9919 C   0  0  0  0  0  0  0  0  0  0  0  0
    7.7369   11.7745   24.9152 C   0  0  0  0  0  0  0  0  0  0  0  0
    6.8890   12.4687   25.7950 C   0  0  0  0  0  0  0  0  0  0  0  0
    6.0154   11.7348   26.5831 C   0  0  0  0  0  0  0  0  0  0  0  0
    5.2288   12.3764   27.4542 F   0  0  0  0  0  0  0  0  0  0  0  0
    5.9572   10.3541   26.5017 C   0  0  0  0  0  0  0  0  0  0  0  0
    6.7948    9.6652   25.6229 C   0  0  0  0  0  0  0  0  0  0  0  0
    7.6991   10.3880   24.8482 C   0  0  0  0  0  0  0  0  0  0  0  0
  1  2  1  0
  2  3  1  0
  3  4  2  0
  4  5  1  0
  5  6  2  0
  5  7  1  0
  7  8  1  0
  8  9  1  0
  9 10  1  0
 10 11  2  0
 11 12  1  0
 12 13  1  0
  8 14  1  0
 14 15  1  0
  4 16  1  0
 16 17  2  0
 17 18  1  0
 18 19  1  0
 18 20  2  0
 20 21  1  0
 21 22  2  0
 22  2  1  0
 15  8  1  0
 22 16  1  0
 13  9  2  0
M  END
>  <alias>  (233) 
None

>  <rmsd(smina/fragmenstein)>  (233) 
0.404

>  <smiles>  (233) 
Cn1nc(C(=O)NC2(c3ccsc3)CC2)c2cc(F)ccc21

>  <gnina_score>  (233) 
5.863

>  <inspiration_score>  (233) 
None

>  <energy_score>  (233) 
-15.970027

>  <distance_score>  (233) 
1.03953

>  <gnina_score_min>  (233) 
5.887

>  <inchikey>  (233) 
VLTRQRMPLQEJSH-UHFFFAOYSA-N

>  <exports>  (233) 
['/opt/xchem-fragalysis-2/maxwin/BulkDock/OUTPUTS/openbind_a71ev2a_c2_elabs_1LOUU54.sdf', '/opt/xchem-fragalysis-2/maxwin/BulkDock/OUTPUTS/openbind_a71ev2a_c2_elabs_1LSYIDY.sdf']

>  <name>  (233) 
P570362

>  <ref_pdb>  (233) 
A2339a

>  <subsites>  (233) 
None

>  <HIPPO Pose ID>  (233) 
570362

>  <ref_mols>  (233) 
A2339a

>  <HIPPO Compound ID>  (233) 
411276

>  <tags>  (233) 
openbind_a71ev2a_c2_elabs,syndirella_product,openbind_a71ev2a_c2_elabs_scored,BulkDock Fragalysis export,openbind_a71ev2a_c2_elabs_scored_top80percent,openbind_a71ev2a_c2_elabs_scored_top80percent_despaghettified,syndirella_placed

>  <smina_score_min>  (233) 
-5.076

$$$$
P570365
     RDKit          3D

 22 25  0  0  0  0  0  0  0  0999 V2000
    9.1249    8.9026   23.2813 C   0  0  0  0  0  0  0  0  0  0  0  0
    8.8428   10.1698   23.9150 N   0  0  0  0  0  0  0  0  0  0  0  0
    9.6343   11.2083   23.6152 N   0  0  0  0  0  0  0  0  0  0  0  0
    9.1793   12.2151   24.3888 C   0  0  0  0  0  0  0  0  0  0  0  0
    9.8819   13.4996   24.4044 C   0  0  0  0  0  0  0  0  0  0  0  0
    9.5765   14.4043   25.0713 O   0  0  0  0  0  0  0  0  0  0  0  0
   10.9604   13.3812   23.3259 N   0  0  0  0  0  0  0  0  0  0  0  0
   11.8116   14.3488   22.7801 C   0  0  0  0  0  0  0  0  0  0  0  0
   11.7210   14.3432   21.2846 C   0  0  2  0  0  0  0  0  0  0  0  0
   12.4238   14.8414   20.1116 C   0  0  0  0  0  0  0  0  0  0  0  0
   11.3985   15.0497   18.9798 C   0  0  0  0  0  0  0  0  0  0  0  0
   10.0627   15.7410   19.3221 C   0  0  0  0  0  0  0  0  0  0  0  0
    9.2516   15.1871   20.5054 C   0  0  0  0  0  0  0  0  0  0  0  0
    9.7216   15.7429   21.8351 C   0  0  0  0  0  0  0  0  0  0  0  0
   11.1682   15.5005   22.0672 C   0  0  1  0  0  0  0  0  0  0  0  0
    8.0073   11.8521   25.0766 C   0  0  0  0  0  0  0  0  0  0  0  0
    7.1030   12.5128   25.9250 C   0  0  0  0  0  0  0  0  0  0  0  0
    6.1165   11.7606   26.5486 C   0  0  0  0  0  0  0  0  0  0  0  0
    5.2849   12.3635   27.4063 F   0  0  0  0  0  0  0  0  0  0  0  0
    6.0089   10.3943   26.3434 C   0  0  0  0  0  0  0  0  0  0  0  0
    6.8763    9.7420   25.4655 C   0  0  0  0  0  0  0  0  0  0  0  0
    7.8634   10.4899   24.8250 C   0  0  0  0  0  0  0  0  0  0  0  0
  1  2  1  0
  2  3  1  0
  3  4  2  0
  4  5  1  0
  5  6  2  0
  5  7  1  0
  7  8  1  0
  8  9  1  0
  9 10  1  6
 10 11  1  0
 11 12  1  0
 12 13  1  0
 13 14  1  0
 15 14  1  1
  4 16  1  0
 16 17  2  0
 17 18  1  0
 18 19  1  0
 18 20  2  0
 20 21  1  0
 21 22  2  0
 22  2  1  0
 15  8  1  0
 22 16  1  0
 15  9  1  0
M  END
>  <alias>  (234) 
None

>  <rmsd(smina/fragmenstein)>  (234) 
0.253

>  <smiles>  (234) 
Cn1nc(C(=O)NC2[C@@H]3CCCCC[C@@H]23)c2cc(F)ccc21

>  <gnina_score>  (234) 
5.922

>  <inspiration_score>  (234) 
None

>  <energy_score>  (234) 
-28.24067

>  <distance_score>  (234) 
0.861586

>  <gnina_score_min>  (234) 
5.866

>  <inchikey>  (234) 
MAUUNDXFTTUAIW-VXGBXAGGSA-N

>  <exports>  (234) 
['/opt/xchem-fragalysis-2/maxwin/BulkDock/OUTPUTS/openbind_a71ev2a_c2_elabs_1LOUU54.sdf', '/opt/xchem-fragalysis-2/maxwin/BulkDock/OUTPUTS/openbind_a71ev2a_c2_elabs_1LSYIDY.sdf']

>  <name>  (234) 
P570365

>  <ref_pdb>  (234) 
A2339a

>  <subsites>  (234) 
None

>  <HIPPO Pose ID>  (234) 
570365

>  <ref_mols>  (234) 
A2339a

>  <HIPPO Compound ID>  (234) 
411278

>  <tags>  (234) 
openbind_a71ev2a_c2_elabs,syndirella_product,openbind_a71ev2a_c2_elabs_scored,BulkDock Fragalysis export,openbind_a71ev2a_c2_elabs_scored_top80percent,openbind_a71ev2a_c2_elabs_scored_top80percent_despaghettified,syndirella_placed

>  <smina_score_min>  (234) 
-7.748

$$$$
P570366
     RDKit          3D

 22 24  0  0  0  0  0  0  0  0999 V2000
    9.3129    8.7974   23.4760 C   0  0  0  0  0  0  0  0  0  0  0  0
    8.8392   10.0858   23.9248 N   0  0  0  0  0  0  0  0  0  0  0  0
    9.4311   11.1864   23.4275 N   0  0  0  0  0  0  0  0  0  0  0  0
    8.8915   12.1875   24.1429 C   0  0  0  0  0  0  0  0  0  0  0  0
    9.2327   13.5733   23.9071 C   0  0  0  0  0  0  0  0  0  0  0  0
    8.9790   14.4162   24.6706 O   0  0  0  0  0  0  0  0  0  0  0  0
    9.8438   13.6540   22.5042 N   0  0  0  0  0  0  0  0  0  0  0  0
   10.1797   14.7696   21.7165 C   0  0  0  0  0  0  0  0  0  0  0  0
   10.3667   14.5251   20.2828 C   0  0  0  0  0  0  0  0  0  0  0  0
   12.0744   14.6393   19.8575 S   0  0  0  0  0  0  0  0  0  0  0  0
   11.7785   15.2298   18.2426 C   0  0  0  0  0  0  0  0  0  0  0  0
   12.7011   13.3519   19.6875 O   0  0  0  0  0  0  0  0  0  0  0  0
   12.7484   15.6642   20.6178 O   0  0  0  0  0  0  0  0  0  0  0  0
    9.3291   15.9939   21.9340 C   0  0  0  0  0  0  0  0  0  0  0  0
   10.7439   15.9430   22.4295 C   0  0  0  0  0  0  0  0  0  0  0  0
    7.8731   11.7510   25.0042 C   0  0  0  0  0  0  0  0  0  0  0  0
    6.9646   12.3840   25.8710 C   0  0  0  0  0  0  0  0  0  0  0  0
    6.0611   11.5975   26.5675 C   0  0  0  0  0  0  0  0  0  0  0  0
    5.2160   12.1817   27.4241 F   0  0  0  0  0  0  0  0  0  0  0  0
    6.0368   10.2226   26.4108 C   0  0  0  0  0  0  0  0  0  0  0  0
    6.9296    9.5988   25.5356 C   0  0  0  0  0  0  0  0  0  0  0  0
    7.8467   10.3757   24.8341 C   0  0  0  0  0  0  0  0  0  0  0  0
  1  2  1  0
  2  3  1  0
  3  4  2  0
  4  5  1  0
  5  6  2  0
  5  7  1  0
  7  8  1  0
  8  9  1  0
  9 10  1  0
 10 11  1  0
 10 12  2  0
 10 13  2  0
  8 14  1  0
 14 15  1  0
  4 16  1  0
 16 17  2  0
 17 18  1  0
 18 19  1  0
 18 20  2  0
 20 21  1  0
 21 22  2  0
 22  2  1  0
 15  8  1  0
 22 16  1  0
M  END
>  <alias>  (235) 
None

>  <rmsd(smina/fragmenstein)>  (235) 
1.678

>  <smiles>  (235) 
Cn1nc(C(=O)NC2(CS(C)(=O)=O)CC2)c2cc(F)ccc21

>  <gnina_score>  (235) 
5.712

>  <inspiration_score>  (235) 
None

>  <energy_score>  (235) 
-37.515257

>  <distance_score>  (235) 
1.001744

>  <gnina_score_min>  (235) 
5.526

>  <inchikey>  (235) 
DXRAZHREDVAUBP-UHFFFAOYSA-N

>  <exports>  (235) 
['/opt/xchem-fragalysis-2/maxwin/BulkDock/OUTPUTS/openbind_a71ev2a_c2_elabs_1LOUU54.sdf', '/opt/xchem-fragalysis-2/maxwin/BulkDock/OUTPUTS/openbind_a71ev2a_c2_elabs_1LSYIDY.sdf']

>  <name>  (235) 
P570366

>  <ref_pdb>  (235) 
A2339a

>  <subsites>  (235) 
None

>  <HIPPO Pose ID>  (235) 
570366

>  <ref_mols>  (235) 
A2339a

>  <HIPPO Compound ID>  (235) 
411279

>  <tags>  (235) 
openbind_a71ev2a_c2_elabs,syndirella_product,openbind_a71ev2a_c2_elabs_scored,BulkDock Fragalysis export,openbind_a71ev2a_c2_elabs_scored_top80percent,openbind_a71ev2a_c2_elabs_scored_top80percent_despaghettified,syndirella_placed

>  <smina_score_min>  (235) 
-5.506

$$$$
P570370
     RDKit          3D

 22 25  0  0  0  0  0  0  0  0999 V2000
    9.5410    8.8158   23.2091 C   0  0  0  0  0  0  0  0  0  0  0  0
    9.1766   10.1505   23.6213 N   0  0  0  0  0  0  0  0  0  0  0  0
    9.8618   11.1866   23.1016 N   0  0  0  0  0  0  0  0  0  0  0  0
    9.3779   12.2613   23.7475 C   0  0  0  0  0  0  0  0  0  0  0  0
    9.9109   13.6076   23.5038 C   0  0  0  0  0  0  0  0  0  0  0  0
    9.6808   14.4811   24.2464 O   0  0  0  0  0  0  0  0  0  0  0  0
   10.6562   13.6146   22.1450 N   0  0  0  0  0  0  0  0  0  0  0  0
   11.1811   14.6966   21.3846 C   0  0  1  0  0  0  0  0  0  0  0  0
   12.3250   14.5387   20.4355 C   0  0  0  0  0  0  0  0  0  0  0  0
   10.9368   14.6455   19.8946 C   0  0  2  0  0  0  0  0  0  0  0  0
   10.2532   15.8284   19.3477 C   0  0  0  0  0  0  0  0  0  0  0  0
    9.5871   16.5346   20.8320 S   0  0  0  0  0  0  0  0  0  0  0  0
    9.5458   17.9693   20.6549 O   0  0  0  0  0  0  0  0  0  0  0  0
    8.4180   15.7667   21.2297 O   0  0  0  0  0  0  0  0  0  0  0  0
   10.9262   16.0724   21.9022 C   0  0  0  0  0  0  0  0  0  0  0  0
    8.3029   11.9122   24.6111 C   0  0  0  0  0  0  0  0  0  0  0  0
    7.4105   12.6111   25.4491 C   0  0  0  0  0  0  0  0  0  0  0  0
    6.4725   11.8854   26.1816 C   0  0  0  0  0  0  0  0  0  0  0  0
    5.6509   12.5297   27.0209 F   0  0  0  0  0  0  0  0  0  0  0  0
    6.3930   10.5039   26.0908 C   0  0  0  0  0  0  0  0  0  0  0  0
    7.2635    9.8019   25.2554 C   0  0  0  0  0  0  0  0  0  0  0  0
    8.2069   10.5267   24.5188 C   0  0  0  0  0  0  0  0  0  0  0  0
  1  2  1  0
  2  3  1  0
  3  4  2  0
  4  5  1  0
  5  6  2  0
  5  7  1  0
  8  7  1  1
  8  9  1  0
 10  9  1  6
 10 11  1  0
 11 12  1  0
 12 13  2  0
 12 14  2  0
 12 15  1  0
  4 16  1  0
 16 17  2  0
 17 18  1  0
 18 19  1  0
 18 20  2  0
 20 21  1  0
 21 22  2  0
 22  2  1  0
 10  8  1  0
 22 16  1  0
 15  8  1  0
M  END
>  <alias>  (236) 
None

>  <rmsd(smina/fragmenstein)>  (236) 
0.562

>  <smiles>  (236) 
Cn1nc(C(=O)N[C@@]23C[C@@H]2CS(=O)(=O)C3)c2cc(F)ccc21

>  <gnina_score>  (236) 
5.768

>  <inspiration_score>  (236) 
None

>  <energy_score>  (236) 
-11.95434

>  <distance_score>  (236) 
0.305378

>  <gnina_score_min>  (236) 
5.78

>  <inchikey>  (236) 
QIWGCIWJEXZTCE-XLKFXECMSA-N

>  <exports>  (236) 
['/opt/xchem-fragalysis-2/maxwin/BulkDock/OUTPUTS/openbind_a71ev2a_c2_elabs_1LOUU54.sdf', '/opt/xchem-fragalysis-2/maxwin/BulkDock/OUTPUTS/openbind_a71ev2a_c2_elabs_1LSYIDY.sdf']

>  <name>  (236) 
P570370

>  <ref_pdb>  (236) 
A2339a

>  <subsites>  (236) 
None

>  <HIPPO Pose ID>  (236) 
570370

>  <ref_mols>  (236) 
A2339a

>  <HIPPO Compound ID>  (236) 
411282

>  <tags>  (236) 
openbind_a71ev2a_c2_elabs,syndirella_product,openbind_a71ev2a_c2_elabs_scored,BulkDock Fragalysis export,openbind_a71ev2a_c2_elabs_scored_top80percent,openbind_a71ev2a_c2_elabs_scored_top80percent_despaghettified,syndirella_placed

>  <smina_score_min>  (236) 
-6.988

$$$$
P570380
     RDKit          3D

 22 24  0  0  0  0  0  0  0  0999 V2000
    9.3777    8.7909   23.3739 C   0  0  0  0  0  0  0  0  0  0  0  0
    8.9232   10.1176   23.7207 N   0  0  0  0  0  0  0  0  0  0  0  0
    9.5277   11.1651   23.1361 N   0  0  0  0  0  0  0  0  0  0  0  0
    9.0205   12.2379   23.7680 C   0  0  0  0  0  0  0  0  0  0  0  0
    9.5926   13.5650   23.5453 C   0  0  0  0  0  0  0  0  0  0  0  0
    9.4430   14.4252   24.3197 O   0  0  0  0  0  0  0  0  0  0  0  0
   10.4321   13.5186   22.2526 N   0  0  0  0  0  0  0  0  0  0  0  0
   11.3150   14.4611   21.7055 C   0  0  1  0  0  0  0  0  0  0  0  0
   12.5375   14.5176   22.5489 C   0  0  0  0  0  0  0  0  0  0  0  0
   11.4978   14.7105   20.2354 C   0  0  0  0  0  0  0  0  0  0  0  0
   10.8180   15.7422   21.1007 C   0  0  1  0  0  0  0  0  0  0  0  0
    9.3848   16.0369   20.9132 C   0  0  0  0  0  0  0  0  0  0  0  0
    8.7262   16.1087   22.0868 F   0  0  0  0  0  0  0  0  0  0  0  0
    8.7761   15.0742   20.1792 F   0  0  0  0  0  0  0  0  0  0  0  0
    9.2494   17.2166   20.2706 F   0  0  0  0  0  0  0  0  0  0  0  0
    8.0060   11.8772   24.6850 C   0  0  0  0  0  0  0  0  0  0  0  0
    7.1511   12.5699   25.5626 C   0  0  0  0  0  0  0  0  0  0  0  0
    6.2690   11.8344   26.3484 C   0  0  0  0  0  0  0  0  0  0  0  0
    5.4704   12.4734   27.2122 F   0  0  0  0  0  0  0  0  0  0  0  0
    6.2167   10.4504   26.2801 C   0  0  0  0  0  0  0  0  0  0  0  0
    7.0675    9.7553   25.4191 C   0  0  0  0  0  0  0  0  0  0  0  0
    7.9602   10.4864   24.6311 C   0  0  0  0  0  0  0  0  0  0  0  0
  1  2  1  0
  2  3  1  0
  3  4  2  0
  4  5  1  0
  5  6  2  0
  5  7  1  0
  8  7  1  0
  8  9  1  1
  8 10  1  0
 10 11  1  0
 11 12  1  6
 12 13  1  0
 12 14  1  0
 12 15  1  0
  4 16  1  0
 16 17  2  0
 17 18  1  0
 18 19  1  0
 18 20  2  0
 20 21  1  0
 21 22  2  0
 22  2  1  0
 11  8  1  0
 22 16  1  0
M  END
>  <alias>  (237) 
None

>  <rmsd(smina/fragmenstein)>  (237) 
0.314

>  <smiles>  (237) 
Cn1nc(C(=O)N[C@@]2(C)C[C@H]2C(F)(F)F)c2cc(F)ccc21

>  <gnina_score>  (237) 
5.902

>  <inspiration_score>  (237) 
None

>  <energy_score>  (237) 
-23.923816

>  <distance_score>  (237) 
0.38896

>  <gnina_score_min>  (237) 
5.951

>  <inchikey>  (237) 
MCWTXOFJLYTGOD-MFKMUULPSA-N

>  <exports>  (237) 
['/opt/xchem-fragalysis-2/maxwin/BulkDock/OUTPUTS/openbind_a71ev2a_c2_elabs_1LOUU54.sdf', '/opt/xchem-fragalysis-2/maxwin/BulkDock/OUTPUTS/openbind_a71ev2a_c2_elabs_1LSYIDY.sdf']

>  <name>  (237) 
P570380

>  <ref_pdb>  (237) 
A2339a

>  <subsites>  (237) 
None

>  <HIPPO Pose ID>  (237) 
570380

>  <ref_mols>  (237) 
A2339a

>  <HIPPO Compound ID>  (237) 
411289

>  <tags>  (237) 
openbind_a71ev2a_c2_elabs,syndirella_product,openbind_a71ev2a_c2_elabs_scored,BulkDock Fragalysis export,openbind_a71ev2a_c2_elabs_scored_top80percent,openbind_a71ev2a_c2_elabs_scored_top80percent_despaghettified,syndirella_placed

>  <smina_score_min>  (237) 
-7.508

$$$$
P570381
     RDKit          3D

 22 25  0  0  0  0  0  0  0  0999 V2000
    9.5559    8.7856   23.0651 C   0  0  0  0  0  0  0  0  0  0  0  0
    9.2626   10.0826   23.6259 N   0  0  0  0  0  0  0  0  0  0  0  0
    9.9778   11.1433   23.2010 N   0  0  0  0  0  0  0  0  0  0  0  0
    9.5584   12.1514   23.9781 C   0  0  0  0  0  0  0  0  0  0  0  0
    9.9913   13.5319   23.7984 C   0  0  0  0  0  0  0  0  0  0  0  0
   10.1618   14.2516   24.7018 O   0  0  0  0  0  0  0  0  0  0  0  0
   10.0493   13.8001   22.2839 N   0  0  0  0  0  0  0  0  0  0  0  0
   10.2307   15.0018   21.5744 C   0  0  0  0  0  0  0  0  0  0  0  0
    8.9324   15.8343   21.4906 C   0  0  0  0  0  0  0  0  0  0  0  0
    7.9018   15.5020   22.5896 C   0  0  0  0  0  0  0  0  0  0  0  0
    7.0096   14.2464   22.3607 C   0  0  0  0  0  0  0  0  0  0  0  0
    5.9367   14.9361   23.2188 C   0  0  0  0  0  0  0  0  0  0  0  0
    6.5523   16.2534   22.7300 C   0  0  0  0  0  0  0  0  0  0  0  0
   11.5819   15.6699   21.5839 C   0  0  0  0  0  0  0  0  0  0  0  0
   11.0942   15.0228   20.3317 C   0  0  0  0  0  0  0  0  0  0  0  0
    8.4414   11.7701   24.7734 C   0  0  0  0  0  0  0  0  0  0  0  0
    7.5242   12.4367   25.6119 C   0  0  0  0  0  0  0  0  0  0  0  0
    6.5196   11.6972   26.2301 C   0  0  0  0  0  0  0  0  0  0  0  0
    5.6688   12.3125   27.0621 F   0  0  0  0  0  0  0  0  0  0  0  0
    6.4129   10.3290   26.0387 C   0  0  0  0  0  0  0  0  0  0  0  0
    7.3062    9.6666   25.1938 C   0  0  0  0  0  0  0  0  0  0  0  0
    8.2924   10.4102   24.5431 C   0  0  0  0  0  0  0  0  0  0  0  0
  1  2  1  0
  2  3  1  0
  3  4  2  0
  4  5  1  0
  5  6  2  0
  5  7  1  0
  7  8  1  0
  8  9  1  0
  9 10  1  0
 10 11  1  0
 11 12  1  0
 12 13  1  0
  8 14  1  0
 14 15  1  0
  4 16  1  0
 16 17  2  0
 17 18  1  0
 18 19  1  0
 18 20  2  0
 20 21  1  0
 21 22  2  0
 22  2  1  0
 15  8  1  0
 22 16  1  0
 13 10  1  0
M  END
>  <alias>  (238) 
None

>  <rmsd(smina/fragmenstein)>  (238) 
0.73

>  <smiles>  (238) 
Cn1nc(C(=O)NC2(CC3CCC3)CC2)c2cc(F)ccc21

>  <gnina_score>  (238) 
6.004

>  <inspiration_score>  (238) 
None

>  <energy_score>  (238) 
-11.216948

>  <distance_score>  (238) 
0.527106

>  <gnina_score_min>  (238) 
5.877

>  <inchikey>  (238) 
UQLXTMIMDDENGX-UHFFFAOYSA-N

>  <exports>  (238) 
['/opt/xchem-fragalysis-2/maxwin/BulkDock/OUTPUTS/openbind_a71ev2a_c2_elabs_1LOUU54.sdf', '/opt/xchem-fragalysis-2/maxwin/BulkDock/OUTPUTS/openbind_a71ev2a_c2_elabs_1LSYIDY.sdf']

>  <name>  (238) 
P570381

>  <ref_pdb>  (238) 
A2339a

>  <subsites>  (238) 
None

>  <HIPPO Pose ID>  (238) 
570381

>  <ref_mols>  (238) 
A2339a

>  <HIPPO Compound ID>  (238) 
411290

>  <tags>  (238) 
openbind_a71ev2a_c2_elabs,syndirella_product,openbind_a71ev2a_c2_elabs_scored,BulkDock Fragalysis export,openbind_a71ev2a_c2_elabs_scored_top80percent,openbind_a71ev2a_c2_elabs_scored_top80percent_despaghettified,syndirella_placed

>  <smina_score_min>  (238) 
-7.322

$$$$
P570387
     RDKit          3D

 22 25  0  0  0  0  0  0  0  0999 V2000
    9.3582    8.4412   23.4078 C   0  0  0  0  0  0  0  0  0  0  0  0
    8.8571    9.7537   23.7194 N   0  0  0  0  0  0  0  0  0  0  0  0
    9.4007   10.7991   23.0713 N   0  0  0  0  0  0  0  0  0  0  0  0
    8.6139   11.8097   23.4405 C   0  0  0  0  0  0  0  0  0  0  0  0
    8.7945   13.1640   23.0425 C   0  0  0  0  0  0  0  0  0  0  0  0
    7.9035   13.8930   22.9116 O   0  0  0  0  0  0  0  0  0  0  0  0
   10.2804   13.4077   22.9543 N   0  0  0  0  0  0  0  0  0  0  0  0
   10.9868   14.5760   22.7859 C   0  0  0  0  0  0  0  0  0  0  0  0
   10.7671   15.2072   24.2279 C   0  0  0  0  0  0  0  0  0  0  0  0
   11.5969   15.1343   25.2439 N   0  0  0  0  0  0  0  0  0  0  0  0
   10.9041   15.3604   26.4144 N   0  0  0  0  0  0  0  0  0  0  0  0
    9.6319   15.4328   26.1087 C   0  0  0  0  0  0  0  0  0  0  0  0
    9.4965   15.3760   24.7569 N   0  0  0  0  0  0  0  0  0  0  0  0
   10.8218   15.4228   21.5550 C   0  0  0  0  0  0  0  0  0  0  0  0
   12.1360   14.7667   21.8665 C   0  0  0  0  0  0  0  0  0  0  0  0
    7.7682   11.4959   24.5179 C   0  0  0  0  0  0  0  0  0  0  0  0
    6.9246   12.2258   25.3802 C   0  0  0  0  0  0  0  0  0  0  0  0
    6.1592   11.5287   26.3010 C   0  0  0  0  0  0  0  0  0  0  0  0
    5.3745   12.2032   27.1499 F   0  0  0  0  0  0  0  0  0  0  0  0
    6.1941   10.1489   26.3464 C   0  0  0  0  0  0  0  0  0  0  0  0
    7.0571    9.4430   25.5019 C   0  0  0  0  0  0  0  0  0  0  0  0
    7.8839   10.1267   24.6228 C   0  0  0  0  0  0  0  0  0  0  0  0
  1  2  1  0
  2  3  1  0
  3  4  2  0
  4  5  1  0
  5  6  2  0
  5  7  1  0
  7  8  1  0
  8  9  1  0
  9 10  2  0
 10 11  1  0
 11 12  2  0
 12 13  1  0
  8 14  1  0
 14 15  1  0
  4 16  1  0
 16 17  2  0
 17 18  1  0
 18 19  1  0
 18 20  2  0
 20 21  1  0
 21 22  2  0
 22  2  1  0
 15  8  1  0
 22 16  1  0
 13  9  1  0
M  END
>  <alias>  (239) 
None

>  <rmsd(smina/fragmenstein)>  (239) 
0.532

>  <smiles>  (239) 
Cn1nc(C(=O)NC2(c3nnc[nH]3)CC2)c2cc(F)ccc21

>  <gnina_score>  (239) 
5.916

>  <inspiration_score>  (239) 
None

>  <energy_score>  (239) 
-1.699895

>  <distance_score>  (239) 
0.884856

>  <gnina_score_min>  (239) 
5.742

>  <inchikey>  (239) 
CTGQEACWRVNGJV-UHFFFAOYSA-N

>  <exports>  (239) 
['/opt/xchem-fragalysis-2/maxwin/BulkDock/OUTPUTS/openbind_a71ev2a_c2_elabs_1LOUU54.sdf', '/opt/xchem-fragalysis-2/maxwin/BulkDock/OUTPUTS/openbind_a71ev2a_c2_elabs_1LSYIDY.sdf']

>  <name>  (239) 
P570387

>  <ref_pdb>  (239) 
A2339a

>  <subsites>  (239) 
None

>  <HIPPO Pose ID>  (239) 
570387

>  <ref_mols>  (239) 
A2339a

>  <HIPPO Compound ID>  (239) 
411303

>  <tags>  (239) 
openbind_a71ev2a_c2_elabs,syndirella_product,openbind_a71ev2a_c2_elabs_scored,BulkDock Fragalysis export,openbind_a71ev2a_c2_elabs_scored_top80percent,openbind_a71ev2a_c2_elabs_scored_top80percent_despaghettified,syndirella_placed

>  <smina_score_min>  (239) 
-4.905

$$$$
P570389
     RDKit          3D

 22 25  0  0  0  0  0  0  0  0999 V2000
    9.5514    8.6616   23.3268 C   0  0  0  0  0  0  0  0  0  0  0  0
    9.0672    9.9864   23.6294 N   0  0  0  0  0  0  0  0  0  0  0  0
    9.5882   11.0231   22.9472 N   0  0  0  0  0  0  0  0  0  0  0  0
    8.8257   12.0619   23.3181 C   0  0  0  0  0  0  0  0  0  0  0  0
    8.8745   13.3489   22.6294 C   0  0  0  0  0  0  0  0  0  0  0  0
    8.0596   14.1525   22.8527 O   0  0  0  0  0  0  0  0  0  0  0  0
   10.1408   13.4259   21.7515 N   0  0  0  0  0  0  0  0  0  0  0  0
   10.7105   14.5179   21.0534 C   0  0  2  0  0  0  0  0  0  0  0  0
   11.0762   14.6355   19.5923 C   0  0  0  0  0  0  0  0  0  0  0  0
   12.1257   14.3783   20.6231 C   0  0  1  0  0  0  0  0  0  0  0  0
   12.8673   15.4405   21.3222 C   0  0  0  0  0  0  0  0  0  0  0  0
   11.9079   16.4677   21.5841 O   0  0  0  0  0  0  0  0  0  0  0  0
   10.6525   15.8096   21.8475 C   0  0  0  0  0  0  0  0  0  0  0  0
   10.6738   15.5094   23.3628 C   0  0  0  0  0  0  0  0  0  0  0  0
    9.4867   16.6504   21.3104 C   0  0  0  0  0  0  0  0  0  0  0  0
    7.9927   11.7405   24.4194 C   0  0  0  0  0  0  0  0  0  0  0  0
    7.1092   12.4462   25.2612 C   0  0  0  0  0  0  0  0  0  0  0  0
    6.3294   11.7268   26.1616 C   0  0  0  0  0  0  0  0  0  0  0  0
    5.5118   12.3805   26.9971 F   0  0  0  0  0  0  0  0  0  0  0  0
    6.3725   10.3427   26.2046 C   0  0  0  0  0  0  0  0  0  0  0  0
    7.2556    9.6413   25.3805 C   0  0  0  0  0  0  0  0  0  0  0  0
    8.0928   10.3597   24.5261 C   0  0  0  0  0  0  0  0  0  0  0  0
  1  2  1  0
  2  3  1  0
  3  4  2  0
  4  5  1  0
  5  6  2  0
  5  7  1  0
  8  7  1  6
  8  9  1  0
 10  9  1  6
 10 11  1  0
 11 12  1  0
 12 13  1  0
 13 14  1  0
 13 15  1  0
  4 16  1  0
 16 17  2  0
 17 18  1  0
 18 19  1  0
 18 20  2  0
 20 21  1  0
 21 22  2  0
 22  2  1  0
 10  8  1  0
 22 16  1  0
 13  8  1  0
M  END
>  <alias>  (240) 
None

>  <rmsd(smina/fragmenstein)>  (240) 
0.262

>  <smiles>  (240) 
Cn1nc(C(=O)N[C@]23C[C@H]2COC3(C)C)c2cc(F)ccc21

>  <gnina_score>  (240) 
5.817

>  <inspiration_score>  (240) 
None

>  <energy_score>  (240) 
-10.796398

>  <distance_score>  (240) 
0.720905

>  <gnina_score_min>  (240) 
5.803

>  <inchikey>  (240) 
LRZQYJYVZAQXJB-XXFAHNHDSA-N

>  <exports>  (240) 
['/opt/xchem-fragalysis-2/maxwin/BulkDock/OUTPUTS/openbind_a71ev2a_c2_elabs_1LOUU54.sdf', '/opt/xchem-fragalysis-2/maxwin/BulkDock/OUTPUTS/openbind_a71ev2a_c2_elabs_1LSYIDY.sdf']

>  <name>  (240) 
P570389

>  <ref_pdb>  (240) 
A2339a

>  <subsites>  (240) 
None

>  <HIPPO Pose ID>  (240) 
570389

>  <ref_mols>  (240) 
A2339a

>  <HIPPO Compound ID>  (240) 
341130

>  <tags>  (240) 
openbind_a71ev2a_c2_elabs,syndirella_product,openbind_a71ev2a_c2_elabs_scored,BulkDock Fragalysis export,openbind_a71ev2a_c2_elabs_scored_top80percent,openbind_a71ev2a_c2_elabs_scored_top80percent_despaghettified,syndirella_placed

>  <smina_score_min>  (240) 
-4.569

$$$$
P570396
     RDKit          3D

 22 24  0  0  0  0  0  0  0  0999 V2000
    8.6910   18.7659   19.8386 C   0  0  0  0  0  0  0  0  0  0  0  0
    8.6293   17.8596   21.0327 C   0  0  0  0  0  0  0  0  0  0  0  0
    9.6717   16.9016   21.1531 N   0  0  0  0  0  0  0  0  0  0  0  0
    9.7793   15.4862   20.6119 C   0  0  0  0  0  0  0  0  0  0  0  0
    9.0705   14.8927   19.9143 O   0  0  0  0  0  0  0  0  0  0  0  0
   10.9633   14.7387   21.1773 C   0  0  0  0  0  0  0  0  0  0  0  0
   10.5229   13.6831   22.0141 N   0  0  0  0  0  0  0  0  0  0  0  0
    9.8577   13.7179   23.4023 C   0  0  0  0  0  0  0  0  0  0  0  0
    9.6360   14.6171   24.1130 O   0  0  0  0  0  0  0  0  0  0  0  0
    9.3963   12.3548   23.7228 C   0  0  0  0  0  0  0  0  0  0  0  0
    9.9267   11.2833   23.1090 N   0  0  0  0  0  0  0  0  0  0  0  0
    9.2300   10.2350   23.5849 N   0  0  0  0  0  0  0  0  0  0  0  0
    9.5678    8.9099   23.1150 C   0  0  0  0  0  0  0  0  0  0  0  0
    8.2606   10.5902   24.4923 C   0  0  0  0  0  0  0  0  0  0  0  0
    7.3280    9.8393   25.2177 C   0  0  0  0  0  0  0  0  0  0  0  0
    6.4457   10.5200   26.0578 C   0  0  0  0  0  0  0  0  0  0  0  0
    6.5007   11.9032   26.1579 C   0  0  0  0  0  0  0  0  0  0  0  0
    5.6640   12.5260   26.9989 F   0  0  0  0  0  0  0  0  0  0  0  0
    7.4252   12.6537   25.4316 C   0  0  0  0  0  0  0  0  0  0  0  0
    8.3360   11.9783   24.5950 C   0  0  0  0  0  0  0  0  0  0  0  0
   12.3169   15.3490   21.4092 C   0  0  0  0  0  0  0  0  0  0  0  0
   12.0881   14.5213   20.1908 C   0  0  0  0  0  0  0  0  0  0  0  0
  1  2  1  0
  2  3  1  0
  3  4  1  0
  4  5  2  0
  4  6  1  0
  6  7  1  0
  7  8  1  0
  8  9  2  0
  8 10  1  0
 10 11  2  0
 11 12  1  0
 12 13  1  0
 12 14  1  0
 14 15  2  0
 15 16  1  0
 16 17  2  0
 17 18  1  0
 17 19  1  0
 19 20  2  0
  6 21  1  0
 21 22  1  0
 22  6  1  0
 20 10  1  0
 20 14  1  0
M  END
>  <alias>  (241) 
None

>  <rmsd(smina/fragmenstein)>  (241) 
0.45

>  <smiles>  (241) 
CCNC(=O)C1(NC(=O)c2nn(C)c3ccc(F)cc23)CC1

>  <gnina_score>  (241) 
5.795

>  <inspiration_score>  (241) 
None

>  <energy_score>  (241) 
-11.936278

>  <distance_score>  (241) 
0.507347

>  <gnina_score_min>  (241) 
5.891

>  <inchikey>  (241) 
YVKJCDSIXWSDBE-UHFFFAOYSA-N

>  <exports>  (241) 
['/opt/xchem-fragalysis-2/maxwin/BulkDock/OUTPUTS/openbind_a71ev2a_c2_elabs_1LOUU54.sdf', '/opt/xchem-fragalysis-2/maxwin/BulkDock/OUTPUTS/openbind_a71ev2a_c2_elabs_1LSYIDY.sdf']

>  <name>  (241) 
P570396

>  <ref_pdb>  (241) 
A2339a

>  <subsites>  (241) 
None

>  <HIPPO Pose ID>  (241) 
570396

>  <ref_mols>  (241) 
A2339a

>  <HIPPO Compound ID>  (241) 
411310

>  <tags>  (241) 
openbind_a71ev2a_c2_elabs,syndirella_product,openbind_a71ev2a_c2_elabs_scored,BulkDock Fragalysis export,openbind_a71ev2a_c2_elabs_scored_top80percent,openbind_a71ev2a_c2_elabs_scored_top80percent_despaghettified,syndirella_placed

>  <smina_score_min>  (241) 
-6.842

$$$$
P570397
     RDKit          3D

 22 24  0  0  0  0  0  0  0  0999 V2000
    9.4974    8.8566   23.0968 C   0  0  0  0  0  0  0  0  0  0  0  0
    9.1906   10.1778   23.5954 N   0  0  0  0  0  0  0  0  0  0  0  0
    9.9115   11.2175   23.1402 N   0  0  0  0  0  0  0  0  0  0  0  0
    9.5042   12.2612   23.8828 C   0  0  0  0  0  0  0  0  0  0  0  0
   10.1684   13.5693   23.7549 C   0  0  0  0  0  0  0  0  0  0  0  0
   10.0945   14.3775   24.5917 O   0  0  0  0  0  0  0  0  0  0  0  0
   10.8126   13.6352   22.3573 N   0  0  0  0  0  0  0  0  0  0  0  0
   11.5865   14.6809   21.7289 C   0  0  0  0  0  0  0  0  0  0  0  0
   10.9187   15.1446   20.4412 C   0  0  0  0  0  0  0  0  0  0  0  0
    9.7887   16.1395   20.6830 C   0  0  0  0  0  0  0  0  0  0  0  0
    9.7992   17.2252   20.2512 O   0  0  0  0  0  0  0  0  0  0  0  0
    8.7378   15.4207   21.5768 N   0  0  0  0  0  0  0  0  0  0  0  0
    7.4760   15.8505   22.0288 C   0  0  0  0  0  0  0  0  0  0  0  0
    6.4075   14.8775   22.4320 C   0  0  0  0  0  0  0  0  0  0  0  0
    7.0494   15.7565   23.4623 C   0  0  0  0  0  0  0  0  0  0  0  0
    8.3836   11.9142   24.6874 C   0  0  0  0  0  0  0  0  0  0  0  0
    7.5025   12.5927   25.5528 C   0  0  0  0  0  0  0  0  0  0  0  0
    6.5199   11.8631   26.2207 C   0  0  0  0  0  0  0  0  0  0  0  0
    5.6997   12.4918   27.0731 F   0  0  0  0  0  0  0  0  0  0  0  0
    6.4027   10.4905   26.0631 C   0  0  0  0  0  0  0  0  0  0  0  0
    7.2660    9.8059   25.2070 C   0  0  0  0  0  0  0  0  0  0  0  0
    8.2309   10.5406   24.5095 C   0  0  0  0  0  0  0  0  0  0  0  0
  1  2  1  0
  2  3  1  0
  3  4  2  0
  4  5  1  0
  5  6  2  0
  5  7  1  0
  7  8  1  0
  8  9  1  0
  9 10  1  0
 10 11  2  0
 10 12  1  0
 12 13  1  0
 13 14  1  0
 14 15  1  0
  4 16  1  0
 16 17  2  0
 17 18  1  0
 18 19  1  0
 18 20  2  0
 20 21  1  0
 21 22  2  0
 22  2  1  0
 15 13  1  0
 22 16  1  0
M  END
>  <alias>  (242) 
None

>  <rmsd(smina/fragmenstein)>  (242) 
0.186

>  <smiles>  (242) 
Cn1nc(C(=O)NCCC(=O)NC2CC2)c2cc(F)ccc21

>  <gnina_score>  (242) 
5.876

>  <inspiration_score>  (242) 
None

>  <energy_score>  (242) 
-9.14887

>  <distance_score>  (242) 
0.534995

>  <gnina_score_min>  (242) 
5.87

>  <inchikey>  (242) 
XOHJWDVBJOCKDT-UHFFFAOYSA-N

>  <exports>  (242) 
['/opt/xchem-fragalysis-2/maxwin/BulkDock/OUTPUTS/openbind_a71ev2a_c2_elabs_1LOUU54.sdf', '/opt/xchem-fragalysis-2/maxwin/BulkDock/OUTPUTS/openbind_a71ev2a_c2_elabs_1LSYIDY.sdf']

>  <name>  (242) 
P570397

>  <ref_pdb>  (242) 
A2339a

>  <subsites>  (242) 
None

>  <HIPPO Pose ID>  (242) 
570397

>  <ref_mols>  (242) 
A2339a

>  <HIPPO Compound ID>  (242) 
411311

>  <tags>  (242) 
openbind_a71ev2a_c2_elabs,syndirella_product,openbind_a71ev2a_c2_elabs_scored,BulkDock Fragalysis export,openbind_a71ev2a_c2_elabs_scored_top80percent,openbind_a71ev2a_c2_elabs_scored_top80percent_despaghettified,syndirella_placed

>  <smina_score_min>  (242) 
-7.105

$$$$
P570398
     RDKit          3D

 22 25  0  0  0  0  0  0  0  0999 V2000
   11.4579   14.8701   19.2529 C   0  0  0  0  0  0  0  0  0  0  0  0
   10.7878   14.8478   20.5482 N   0  0  0  0  0  0  0  0  0  0  0  0
   11.6232   15.2985   21.6534 C   0  0  0  0  0  0  0  0  0  0  0  0
   12.6833   14.4006   22.1602 C   0  0  0  0  0  0  0  0  0  0  0  0
   11.4944   14.6113   23.0061 C   0  0  0  0  0  0  0  0  0  0  0  0
    9.4530   15.4854   20.4417 C   0  0  0  0  0  0  0  0  0  0  0  0
    9.0030   16.2477   21.6720 C   0  0  0  0  0  0  0  0  0  0  0  0
    8.8399   14.9284   22.3769 N   0  0  0  0  0  0  0  0  0  0  0  0
    7.8519   14.4891   23.4210 C   0  0  0  0  0  0  0  0  0  0  0  0
    6.9215   15.0534   23.8762 O   0  0  0  0  0  0  0  0  0  0  0  0
    8.1218   13.0484   23.8169 C   0  0  0  0  0  0  0  0  0  0  0  0
    8.9492   12.2053   23.1552 N   0  0  0  0  0  0  0  0  0  0  0  0
    8.7688   10.9911   23.7207 N   0  0  0  0  0  0  0  0  0  0  0  0
    9.4441    9.8181   23.1897 C   0  0  0  0  0  0  0  0  0  0  0  0
    7.8191   11.0009   24.7093 C   0  0  0  0  0  0  0  0  0  0  0  0
    7.2127    9.9705   25.4363 C   0  0  0  0  0  0  0  0  0  0  0  0
    6.2589   10.3323   26.3896 C   0  0  0  0  0  0  0  0  0  0  0  0
    5.9579   11.6704   26.6081 C   0  0  0  0  0  0  0  0  0  0  0  0
    5.0796   11.9990   27.5615 F   0  0  0  0  0  0  0  0  0  0  0  0
    6.5325   12.6867   25.8555 C   0  0  0  0  0  0  0  0  0  0  0  0
    7.4612   12.3397   24.8627 C   0  0  0  0  0  0  0  0  0  0  0  0
    8.3850   14.5477   20.9870 C   0  0  0  0  0  0  0  0  0  0  0  0
  1  2  1  0
  2  3  1  0
  3  4  1  0
  4  5  1  0
  2  6  1  0
  6  7  1  0
  7  8  1  0
  8  9  1  0
  9 10  2  0
  9 11  1  0
 11 12  2  0
 12 13  1  0
 13 14  1  0
 13 15  1  0
 15 16  2  0
 16 17  1  0
 17 18  2  0
 18 19  1  0
 18 20  1  0
 20 21  2  0
  8 22  1  0
  5  3  1  0
 22  6  1  0
 21 11  1  0
 21 15  1  0
M  END
>  <alias>  (243) 
None

>  <rmsd(smina/fragmenstein)>  (243) 
0.641

>  <smiles>  (243) 
CN(C1CC1)C1CN(C(=O)c2nn(C)c3ccc(F)cc23)C1

>  <gnina_score>  (243) 
5.663

>  <inspiration_score>  (243) 
None

>  <energy_score>  (243) 
-10.059764

>  <distance_score>  (243) 
1.46506

>  <gnina_score_min>  (243) 
5.459

>  <inchikey>  (243) 
UHEUINDEXFMXLG-UHFFFAOYSA-N

>  <exports>  (243) 
['/opt/xchem-fragalysis-2/maxwin/BulkDock/OUTPUTS/openbind_a71ev2a_c2_elabs_1LOUU54.sdf', '/opt/xchem-fragalysis-2/maxwin/BulkDock/OUTPUTS/openbind_a71ev2a_c2_elabs_1LSYIDY.sdf']

>  <name>  (243) 
P570398

>  <ref_pdb>  (243) 
A2339a

>  <subsites>  (243) 
None

>  <HIPPO Pose ID>  (243) 
570398

>  <ref_mols>  (243) 
A2339a

>  <HIPPO Compound ID>  (243) 
411313

>  <tags>  (243) 
openbind_a71ev2a_c2_elabs,syndirella_product,openbind_a71ev2a_c2_elabs_scored,BulkDock Fragalysis export,openbind_a71ev2a_c2_elabs_scored_top80percent,openbind_a71ev2a_c2_elabs_scored_top80percent_despaghettified,syndirella_placed

>  <smina_score_min>  (243) 
-6.549

$$$$
P570399
     RDKit          3D

 23 26  0  0  0  0  0  0  0  0999 V2000
   11.2628   15.3445   27.8526 C   0  0  0  0  0  0  0  0  0  0  0  0
   10.7906   15.3362   26.4552 C   0  0  0  0  0  0  0  0  0  0  0  0
    9.5201   15.5933   26.1495 N   0  0  0  0  0  0  0  0  0  0  0  0
    9.5021   15.4756   24.7615 O   0  0  0  0  0  0  0  0  0  0  0  0
   10.7967   15.2108   24.3400 C   0  0  0  0  0  0  0  0  0  0  0  0
   11.0263   14.5692   22.8939 C   0  0  0  0  0  0  0  0  0  0  0  0
   10.2904   13.4175   23.0489 N   0  0  0  0  0  0  0  0  0  0  0  0
    8.7962   13.1999   23.0504 C   0  0  0  0  0  0  0  0  0  0  0  0
    7.9286   13.9386   22.8445 O   0  0  0  0  0  0  0  0  0  0  0  0
    8.5937   11.8531   23.4734 C   0  0  0  0  0  0  0  0  0  0  0  0
    9.3783   10.8331   23.1166 N   0  0  0  0  0  0  0  0  0  0  0  0
    8.8153    9.7925   23.7545 N   0  0  0  0  0  0  0  0  0  0  0  0
    9.3030    8.4748   23.4420 C   0  0  0  0  0  0  0  0  0  0  0  0
    7.8450   10.1749   24.6567 C   0  0  0  0  0  0  0  0  0  0  0  0
    7.0106    9.4961   25.5343 C   0  0  0  0  0  0  0  0  0  0  0  0
    6.1594   10.2157   26.3785 C   0  0  0  0  0  0  0  0  0  0  0  0
    6.1409   11.5976   26.3322 C   0  0  0  0  0  0  0  0  0  0  0  0
    5.3651   12.2762   27.1859 F   0  0  0  0  0  0  0  0  0  0  0  0
    6.9131   12.2887   25.4117 C   0  0  0  0  0  0  0  0  0  0  0  0
    7.7452   11.5477   24.5495 C   0  0  0  0  0  0  0  0  0  0  0  0
   12.1755   14.7288   21.9650 C   0  0  0  0  0  0  0  0  0  0  0  0
   10.8791   15.4165   21.6565 C   0  0  0  0  0  0  0  0  0  0  0  0
   11.5992   15.0710   25.3763 N   0  0  0  0  0  0  0  0  0  0  0  0
  1  2  1  0
  2  3  2  0
  3  4  1  0
  4  5  1  0
  5  6  1  0
  6  7  1  0
  7  8  1  0
  8  9  2  0
  8 10  1  0
 10 11  2  0
 11 12  1  0
 12 13  1  0
 12 14  1  0
 14 15  2  0
 15 16  1  0
 16 17  2  0
 17 18  1  0
 17 19  1  0
 19 20  2  0
  6 21  1  0
 21 22  1  0
  5 23  2  0
 23  2  1  0
 22  6  1  0
 20 10  1  0
 20 14  1  0
M  END
>  <alias>  (244) 
None

>  <rmsd(smina/fragmenstein)>  (244) 
0.459

>  <smiles>  (244) 
Cc1noc(C2(NC(=O)c3nn(C)c4ccc(F)cc34)CC2)n1

>  <gnina_score>  (244) 
5.939

>  <inspiration_score>  (244) 
None

>  <energy_score>  (244) 
-21.581406

>  <distance_score>  (244) 
0.912889

>  <gnina_score_min>  (244) 
5.807

>  <inchikey>  (244) 
ITJNACFUGVUYIO-UHFFFAOYSA-N

>  <exports>  (244) 
['/opt/xchem-fragalysis-2/maxwin/BulkDock/OUTPUTS/openbind_a71ev2a_c2_elabs_1LOUU54.sdf', '/opt/xchem-fragalysis-2/maxwin/BulkDock/OUTPUTS/openbind_a71ev2a_c2_elabs_1LSYIDY.sdf']

>  <name>  (244) 
P570399

>  <ref_pdb>  (244) 
A2339a

>  <subsites>  (244) 
None

>  <HIPPO Pose ID>  (244) 
570399

>  <ref_mols>  (244) 
A2339a

>  <HIPPO Compound ID>  (244) 
411315

>  <tags>  (244) 
openbind_a71ev2a_c2_elabs,syndirella_product,openbind_a71ev2a_c2_elabs_scored,BulkDock Fragalysis export,openbind_a71ev2a_c2_elabs_scored_top80percent,openbind_a71ev2a_c2_elabs_scored_top80percent_despaghettified,syndirella_placed

>  <smina_score_min>  (244) 
-5.273

$$$$
P570400
     RDKit          3D

 23 26  0  0  0  0  0  0  0  0999 V2000
    9.5917   16.3481   20.7826 C   0  0  0  0  0  0  0  0  0  0  0  0
   10.6644   15.4936   21.3147 C   0  0  0  0  0  0  0  0  0  0  0  0
   12.0566   15.7424   21.3040 C   0  0  0  0  0  0  0  0  0  0  0  0
   12.7938   14.8237   21.9138 N   0  0  0  0  0  0  0  0  0  0  0  0
   11.8965   13.9275   22.2571 N   0  0  0  0  0  0  0  0  0  0  0  0
   12.0828   13.0178   23.4258 C   0  0  0  0  0  0  0  0  0  0  0  0
   13.0676   13.0321   24.5371 C   0  0  0  0  0  0  0  0  0  0  0  0
   11.7140   13.6254   24.7664 C   0  0  0  0  0  0  0  0  0  0  0  0
   10.6010   14.2799   21.9340 C   0  0  0  0  0  0  0  0  0  0  0  0
    9.7236   13.4412   22.5119 N   0  0  0  0  0  0  0  0  0  0  0  0
    8.4805   13.7260   23.3363 C   0  0  0  0  0  0  0  0  0  0  0  0
    7.9594   14.7316   23.5916 O   0  0  0  0  0  0  0  0  0  0  0  0
    8.1414   12.3803   23.8305 C   0  0  0  0  0  0  0  0  0  0  0  0
    8.8347   11.3227   23.3379 N   0  0  0  0  0  0  0  0  0  0  0  0
    8.4013   10.2637   24.0261 N   0  0  0  0  0  0  0  0  0  0  0  0
    8.9640    8.9690   23.7076 C   0  0  0  0  0  0  0  0  0  0  0  0
    7.4556   10.5979   24.9608 C   0  0  0  0  0  0  0  0  0  0  0  0
    6.6797    9.8337   25.8291 C   0  0  0  0  0  0  0  0  0  0  0  0
    5.8637   10.5049   26.7379 C   0  0  0  0  0  0  0  0  0  0  0  0
    5.8179   11.8917   26.7494 C   0  0  0  0  0  0  0  0  0  0  0  0
    5.0570   12.5095   27.6576 F   0  0  0  0  0  0  0  0  0  0  0  0
    6.5314   12.6593   25.8392 C   0  0  0  0  0  0  0  0  0  0  0  0
    7.3392   11.9899   24.9119 C   0  0  0  0  0  0  0  0  0  0  0  0
  1  2  1  0
  2  3  1  0
  3  4  2  0
  4  5  1  0
  5  6  1  0
  6  7  1  0
  7  8  1  0
  5  9  1  0
  9 10  1  0
 10 11  1  0
 11 12  2  0
 11 13  1  0
 13 14  2  0
 14 15  1  0
 15 16  1  0
 15 17  1  0
 17 18  2  0
 18 19  1  0
 19 20  2  0
 20 21  1  0
 20 22  1  0
 22 23  2  0
  9  2  2  0
 23 13  1  0
  8  6  1  0
 23 17  1  0
M  END
>  <alias>  (245) 
None

>  <rmsd(smina/fragmenstein)>  (245) 
0.517

>  <smiles>  (245) 
Cc1cnn(C2CC2)c1NC(=O)c1nn(C)c2ccc(F)cc12

>  <gnina_score>  (245) 
6.139

>  <inspiration_score>  (245) 
None

>  <energy_score>  (245) 
-23.043161

>  <distance_score>  (245) 
1.016202

>  <gnina_score_min>  (245) 
5.973

>  <inchikey>  (245) 
QJSUMVDEVGUZMD-UHFFFAOYSA-N

>  <exports>  (245) 
['/opt/xchem-fragalysis-2/maxwin/BulkDock/OUTPUTS/openbind_a71ev2a_c2_elabs_1LOUU54.sdf', '/opt/xchem-fragalysis-2/maxwin/BulkDock/OUTPUTS/openbind_a71ev2a_c2_elabs_1LSYIDY.sdf']

>  <name>  (245) 
P570400

>  <ref_pdb>  (245) 
A2339a

>  <subsites>  (245) 
None

>  <HIPPO Pose ID>  (245) 
570400

>  <ref_mols>  (245) 
A2339a

>  <HIPPO Compound ID>  (245) 
411316

>  <tags>  (245) 
openbind_a71ev2a_c2_elabs,syndirella_product,openbind_a71ev2a_c2_elabs_scored,BulkDock Fragalysis export,openbind_a71ev2a_c2_elabs_scored_top80percent,openbind_a71ev2a_c2_elabs_scored_top80percent_despaghettified,syndirella_placed

>  <smina_score_min>  (245) 
-7.16

$$$$
P570401
     RDKit          3D

 23 26  0  0  0  0  0  0  0  0999 V2000
    9.4107    8.5928   23.3741 C   0  0  0  0  0  0  0  0  0  0  0  0
    9.0652    9.9379   23.7604 N   0  0  0  0  0  0  0  0  0  0  0  0
    9.7897   10.9492   23.2490 N   0  0  0  0  0  0  0  0  0  0  0  0
    9.3997   12.0123   23.9669 C   0  0  0  0  0  0  0  0  0  0  0  0
    9.9922   13.3296   23.7989 C   0  0  0  0  0  0  0  0  0  0  0  0
    9.8687   14.1441   24.6247 O   0  0  0  0  0  0  0  0  0  0  0  0
   10.6361   13.4127   22.4044 N   0  0  0  0  0  0  0  0  0  0  0  0
   11.1673   14.5135   21.7072 C   0  0  0  0  0  0  0  0  0  0  0  0
   10.2207   15.6861   21.8026 C   0  0  2  0  0  0  0  0  0  0  0  0
    8.7565   15.2803   21.5701 C   0  0  0  0  0  0  0  0  0  0  0  0
    7.8823   16.5052   21.6766 C   0  0  0  0  0  0  0  0  0  0  0  0
    8.5019   17.6760   20.9011 C   0  0  0  0  0  0  0  0  0  0  0  0
    9.6957   17.2308   20.0964 C   0  0  0  0  0  0  0  0  0  0  0  0
   10.6812   16.7397   20.9730 O   0  0  0  0  0  0  0  0  0  0  0  0
   12.0801   14.3492   20.5216 C   0  0  0  0  0  0  0  0  0  0  0  0
   12.6134   14.8593   21.8216 C   0  0  0  0  0  0  0  0  0  0  0  0
    8.2654   11.7237   24.7678 C   0  0  0  0  0  0  0  0  0  0  0  0
    7.3867   12.4685   25.5812 C   0  0  0  0  0  0  0  0  0  0  0  0
    6.3902   11.7946   26.2804 C   0  0  0  0  0  0  0  0  0  0  0  0
    5.5809   12.4796   27.0981 F   0  0  0  0  0  0  0  0  0  0  0  0
    6.2472   10.4208   26.1833 C   0  0  0  0  0  0  0  0  0  0  0  0
    7.0981    9.6829   25.3582 C   0  0  0  0  0  0  0  0  0  0  0  0
    8.0923   10.3524   24.6412 C   0  0  0  0  0  0  0  0  0  0  0  0
  1  2  1  0
  2  3  1  0
  3  4  2  0
  4  5  1  0
  5  6  2  0
  5  7  1  0
  7  8  1  0
  9  8  1  6
  9 10  1  0
 10 11  1  0
 11 12  1  0
 12 13  1  0
 13 14  1  0
  8 15  1  0
 15 16  1  0
  4 17  1  0
 17 18  2  0
 18 19  1  0
 19 20  1  0
 19 21  2  0
 21 22  1  0
 22 23  2  0
 23  2  1  0
 16  8  1  0
 23 17  1  0
 14  9  1  0
M  END
>  <alias>  (246) 
None

>  <rmsd(smina/fragmenstein)>  (246) 
0.626

>  <smiles>  (246) 
Cn1nc(C(=O)NC2([C@@H]3CCCCO3)CC2)c2cc(F)ccc21

>  <gnina_score>  (246) 
5.825

>  <inspiration_score>  (246) 
None

>  <energy_score>  (246) 
-13.806492

>  <distance_score>  (246) 
0.602163

>  <gnina_score_min>  (246) 
5.817

>  <inchikey>  (246) 
NKLUKHXJPXKGEC-AWEZNQCLSA-N

>  <exports>  (246) 
['/opt/xchem-fragalysis-2/maxwin/BulkDock/OUTPUTS/openbind_a71ev2a_c2_elabs_1LOUU54.sdf', '/opt/xchem-fragalysis-2/maxwin/BulkDock/OUTPUTS/openbind_a71ev2a_c2_elabs_1LSYIDY.sdf']

>  <name>  (246) 
P570401

>  <ref_pdb>  (246) 
A2339a

>  <subsites>  (246) 
None

>  <HIPPO Pose ID>  (246) 
570401

>  <ref_mols>  (246) 
A2339a

>  <HIPPO Compound ID>  (246) 
411318

>  <tags>  (246) 
openbind_a71ev2a_c2_elabs,syndirella_product,openbind_a71ev2a_c2_elabs_scored,BulkDock Fragalysis export,openbind_a71ev2a_c2_elabs_scored_top80percent,openbind_a71ev2a_c2_elabs_scored_top80percent_despaghettified,syndirella_placed

>  <smina_score_min>  (246) 
-5.463

$$$$
P570403
     RDKit          3D

 23 26  0  0  0  0  0  0  0  0999 V2000
    9.5543    9.0313   23.1816 C   0  0  0  0  0  0  0  0  0  0  0  0
    9.1682   10.2737   23.8151 N   0  0  0  0  0  0  0  0  0  0  0  0
    9.8210   11.4106   23.4793 N   0  0  0  0  0  0  0  0  0  0  0  0
    9.2691   12.3516   24.2668 C   0  0  0  0  0  0  0  0  0  0  0  0
    9.3516   13.7783   23.9902 C   0  0  0  0  0  0  0  0  0  0  0  0
    9.4704   14.6164   24.7876 O   0  0  0  0  0  0  0  0  0  0  0  0
    9.1454   13.8686   22.4868 N   0  0  0  0  0  0  0  0  0  0  0  0
    8.9494   14.9758   21.6637 C   0  0  0  0  0  0  0  0  0  0  0  0
    7.4220   15.1983   21.7287 C   0  0  0  0  0  0  0  0  0  0  0  0
    6.8454   16.2018   22.4782 C   0  0  0  0  0  0  0  0  0  0  0  0
    5.4833   16.1645   22.7018 C   0  0  0  0  0  0  0  0  0  0  0  0
    4.6761   15.2150   22.2192 N   0  0  0  0  0  0  0  0  0  0  0  0
    5.3015   14.2614   21.5278 C   0  0  0  0  0  0  0  0  0  0  0  0
    6.6260   14.1862   21.2778 N   0  0  0  0  0  0  0  0  0  0  0  0
    9.7163   15.0442   20.3616 C   0  0  0  0  0  0  0  0  0  0  0  0
    9.9772   16.0443   21.4349 C   0  0  0  0  0  0  0  0  0  0  0  0
    8.1894   11.8335   25.0256 C   0  0  0  0  0  0  0  0  0  0  0  0
    7.1915   12.3965   25.8444 C   0  0  0  0  0  0  0  0  0  0  0  0
    6.2451   11.5532   26.4112 C   0  0  0  0  0  0  0  0  0  0  0  0
    5.3318   12.0700   27.2425 F   0  0  0  0  0  0  0  0  0  0  0  0
    6.2540   10.1898   26.1613 C   0  0  0  0  0  0  0  0  0  0  0  0
    7.2123    9.6366   25.3068 C   0  0  0  0  0  0  0  0  0  0  0  0
    8.1594   10.4801   24.7275 C   0  0  0  0  0  0  0  0  0  0  0  0
  1  2  1  0
  2  3  1  0
  3  4  2  0
  4  5  1  0
  5  6  2  0
  5  7  1  0
  7  8  1  0
  8  9  1  0
  9 10  2  0
 10 11  1  0
 11 12  2  0
 12 13  1  0
 13 14  2  0
  8 15  1  0
 15 16  1  0
  4 17  1  0
 17 18  2  0
 18 19  1  0
 19 20  1  0
 19 21  2  0
 21 22  1  0
 22 23  2  0
 23  2  1  0
 16  8  1  0
 23 17  1  0
 14  9  1  0
M  END
>  <alias>  (247) 
None

>  <rmsd(smina/fragmenstein)>  (247) 
0.784

>  <smiles>  (247) 
Cn1nc(C(=O)NC2(c3ccncn3)CC2)c2cc(F)ccc21

>  <gnina_score>  (247) 
5.992

>  <inspiration_score>  (247) 
None

>  <energy_score>  (247) 
-23.713803

>  <distance_score>  (247) 
1.020072

>  <gnina_score_min>  (247) 
5.991

>  <inchikey>  (247) 
DDUCVHYUMKEARY-UHFFFAOYSA-N

>  <exports>  (247) 
['/opt/xchem-fragalysis-2/maxwin/BulkDock/OUTPUTS/openbind_a71ev2a_c2_elabs_1LOUU54.sdf', '/opt/xchem-fragalysis-2/maxwin/BulkDock/OUTPUTS/openbind_a71ev2a_c2_elabs_1LSYIDY.sdf']

>  <name>  (247) 
P570403

>  <ref_pdb>  (247) 
A2339a

>  <subsites>  (247) 
None

>  <HIPPO Pose ID>  (247) 
570403

>  <ref_mols>  (247) 
A2339a

>  <HIPPO Compound ID>  (247) 
411320

>  <tags>  (247) 
openbind_a71ev2a_c2_elabs,syndirella_product,openbind_a71ev2a_c2_elabs_scored,BulkDock Fragalysis export,openbind_a71ev2a_c2_elabs_scored_top80percent,openbind_a71ev2a_c2_elabs_scored_top80percent_despaghettified,syndirella_placed

>  <smina_score_min>  (247) 
-6.41

$$$$
P570404
     RDKit          3D

 23 26  0  0  0  0  0  0  0  0999 V2000
    9.1945    9.4336   23.3660 C   0  0  0  0  0  0  0  0  0  0  0  0
    8.5374   10.6188   23.8865 N   0  0  0  0  0  0  0  0  0  0  0  0
    8.7208   11.8073   23.2784 N   0  0  0  0  0  0  0  0  0  0  0  0
    8.0519   12.6974   24.0443 C   0  0  0  0  0  0  0  0  0  0  0  0
    8.0112   14.1419   23.7259 C   0  0  0  0  0  0  0  0  0  0  0  0
    7.6174   14.9350   24.4786 O   0  0  0  0  0  0  0  0  0  0  0  0
    8.5943   14.3095   22.3285 N   0  0  0  0  0  0  0  0  0  0  0  0
    8.7340   15.4711   21.5166 C   0  0  0  0  0  0  0  0  0  0  0  0
    9.9472   15.3184   20.6841 C   0  0  0  0  0  0  0  0  0  0  0  0
   10.0036   15.4418   19.3726 N   0  0  0  0  0  0  0  0  0  0  0  0
   11.2950   15.1475   19.0288 C   0  0  0  0  0  0  0  0  0  0  0  0
   12.0501   14.8905   20.1456 C   0  0  0  0  0  0  0  0  0  0  0  0
   11.1776   14.9913   21.1805 N   0  0  0  0  0  0  0  0  0  0  0  0
   11.5285   14.8347   22.6046 C   0  0  0  0  0  0  0  0  0  0  0  0
   12.5794   13.8527   23.0451 C   0  0  0  0  0  0  0  0  0  0  0  0
   11.1837   13.6136   23.4302 C   0  0  0  0  0  0  0  0  0  0  0  0
    7.3688   12.0506   25.0878 C   0  0  0  0  0  0  0  0  0  0  0  0
    6.5024   12.4764   26.1014 C   0  0  0  0  0  0  0  0  0  0  0  0
    5.8533   11.5081   26.8485 C   0  0  0  0  0  0  0  0  0  0  0  0
    5.0158   11.9035   27.8117 F   0  0  0  0  0  0  0  0  0  0  0  0
    6.0423   10.1531   26.6137 C   0  0  0  0  0  0  0  0  0  0  0  0
    6.9432    9.7230   25.6360 C   0  0  0  0  0  0  0  0  0  0  0  0
    7.6130   10.6939   24.8978 C   0  0  0  0  0  0  0  0  0  0  0  0
  1  2  1  0
  2  3  1  0
  3  4  2  0
  4  5  1  0
  5  6  2  0
  5  7  1  0
  7  8  1  0
  8  9  1  0
  9 10  2  0
 10 11  1  0
 11 12  2  0
 12 13  1  0
 13 14  1  0
 14 15  1  0
 15 16  1  0
  4 17  1  0
 17 18  2  0
 18 19  1  0
 19 20  1  0
 19 21  2  0
 21 22  1  0
 22 23  2  0
 23  2  1  0
 13  9  1  0
 16 14  1  0
 23 17  1  0
M  END
>  <alias>  (248) 
None

>  <rmsd(smina/fragmenstein)>  (248) 
0.64

>  <smiles>  (248) 
Cn1nc(C(=O)NCc2nccn2C2CC2)c2cc(F)ccc21

>  <gnina_score>  (248) 
6.181

>  <inspiration_score>  (248) 
None

>  <energy_score>  (248) 
-12.486891

>  <distance_score>  (248) 
1.436945

>  <gnina_score_min>  (248) 
5.844

>  <inchikey>  (248) 
RKTFOOPLNXKFOE-UHFFFAOYSA-N

>  <exports>  (248) 
['/opt/xchem-fragalysis-2/maxwin/BulkDock/OUTPUTS/openbind_a71ev2a_c2_elabs_1LOUU54.sdf', '/opt/xchem-fragalysis-2/maxwin/BulkDock/OUTPUTS/openbind_a71ev2a_c2_elabs_1LSYIDY.sdf']

>  <name>  (248) 
P570404

>  <ref_pdb>  (248) 
A2339a

>  <subsites>  (248) 
None

>  <HIPPO Pose ID>  (248) 
570404

>  <ref_mols>  (248) 
A2339a

>  <HIPPO Compound ID>  (248) 
411321

>  <tags>  (248) 
openbind_a71ev2a_c2_elabs,syndirella_product,openbind_a71ev2a_c2_elabs_scored,BulkDock Fragalysis export,openbind_a71ev2a_c2_elabs_scored_top80percent,openbind_a71ev2a_c2_elabs_scored_top80percent_despaghettified,syndirella_placed

>  <smina_score_min>  (248) 
-6.662

$$$$
P570405
     RDKit          3D

 23 26  0  0  0  0  0  0  0  0999 V2000
    9.3338    8.7702   23.0884 C   0  0  0  0  0  0  0  0  0  0  0  0
    9.0840   10.0756   23.6523 N   0  0  0  0  0  0  0  0  0  0  0  0
    9.8683   11.0949   23.2638 N   0  0  0  0  0  0  0  0  0  0  0  0
    9.4978   12.1120   24.0558 C   0  0  0  0  0  0  0  0  0  0  0  0
   10.2864   13.3431   24.1099 C   0  0  0  0  0  0  0  0  0  0  0  0
   10.2326   14.0555   25.0286 O   0  0  0  0  0  0  0  0  0  0  0  0
   11.0192   13.4969   22.7780 N   0  0  0  0  0  0  0  0  0  0  0  0
   11.7604   14.5892   22.2525 C   0  0  0  0  0  0  0  0  0  0  0  0
   11.3027   14.9097   20.8919 C   0  0  0  0  0  0  0  0  0  0  0  0
   12.0744   14.9419   19.8242 N   0  0  0  0  0  0  0  0  0  0  0  0
   11.2249   15.3404   18.8423 C   0  0  0  0  0  0  0  0  0  0  0  0
    9.9800   15.6037   19.2319 N   0  0  0  0  0  0  0  0  0  0  0  0
   10.0241   15.2499   20.5246 N   0  0  0  0  0  0  0  0  0  0  0  0
    8.7550   15.0150   21.2605 C   0  0  0  0  0  0  0  0  0  0  0  0
    7.9015   16.1767   21.7167 C   0  0  0  0  0  0  0  0  0  0  0  0
    8.5065   15.2659   22.7201 C   0  0  0  0  0  0  0  0  0  0  0  0
    8.3184   11.8088   24.7799 C   0  0  0  0  0  0  0  0  0  0  0  0
    7.4419   12.5115   25.6303 C   0  0  0  0  0  0  0  0  0  0  0  0
    6.4337   11.8044   26.2805 C   0  0  0  0  0  0  0  0  0  0  0  0
    5.6216   12.4484   27.1289 F   0  0  0  0  0  0  0  0  0  0  0  0
    6.2902   10.4355   26.1166 C   0  0  0  0  0  0  0  0  0  0  0  0
    7.1412    9.7372   25.2580 C   0  0  0  0  0  0  0  0  0  0  0  0
    8.1289   10.4468   24.5710 C   0  0  0  0  0  0  0  0  0  0  0  0
  1  2  1  0
  2  3  1  0
  3  4  2  0
  4  5  1  0
  5  6  2  0
  5  7  1  0
  7  8  1  0
  8  9  1  0
  9 10  2  0
 10 11  1  0
 11 12  2  0
 12 13  1  0
 13 14  1  0
 14 15  1  0
 15 16  1  0
  4 17  1  0
 17 18  2  0
 18 19  1  0
 19 20  1  0
 19 21  2  0
 21 22  1  0
 22 23  2  0
 23  2  1  0
 13  9  1  0
 16 14  1  0
 23 17  1  0
M  END
>  <alias>  (249) 
None

>  <rmsd(smina/fragmenstein)>  (249) 
0.196

>  <smiles>  (249) 
Cn1nc(C(=O)NCc2ncnn2C2CC2)c2cc(F)ccc21

>  <gnina_score>  (249) 
6.29

>  <inspiration_score>  (249) 
None

>  <energy_score>  (249) 
-22.885388

>  <distance_score>  (249) 
0.587659

>  <gnina_score_min>  (249) 
6.276

>  <inchikey>  (249) 
CHNGBHBFQGAITC-UHFFFAOYSA-N

>  <exports>  (249) 
['/opt/xchem-fragalysis-2/maxwin/BulkDock/OUTPUTS/openbind_a71ev2a_c2_elabs_1LOUU54.sdf', '/opt/xchem-fragalysis-2/maxwin/BulkDock/OUTPUTS/openbind_a71ev2a_c2_elabs_1LSYIDY.sdf']

>  <name>  (249) 
P570405

>  <ref_pdb>  (249) 
A2339a

>  <subsites>  (249) 
None

>  <HIPPO Pose ID>  (249) 
570405

>  <ref_mols>  (249) 
A2339a

>  <HIPPO Compound ID>  (249) 
411322

>  <tags>  (249) 
openbind_a71ev2a_c2_elabs,syndirella_product,openbind_a71ev2a_c2_elabs_scored,BulkDock Fragalysis export,openbind_a71ev2a_c2_elabs_scored_top80percent,openbind_a71ev2a_c2_elabs_scored_6plus,openbind_a71ev2a_c2_elabs_scored_top80percent_despaghettified,syndirella_placed

>  <smina_score_min>  (249) 
-6.741

$$$$
P570406
     RDKit          3D

 23 27  0  0  0  0  0  0  0  0999 V2000
    8.9684    8.6568   23.6326 C   0  0  0  0  0  0  0  0  0  0  0  0
    8.5796    9.9759   24.0655 N   0  0  0  0  0  0  0  0  0  0  0  0
    9.2507   11.0171   23.5600 N   0  0  0  0  0  0  0  0  0  0  0  0
    8.7882   12.0657   24.2639 C   0  0  0  0  0  0  0  0  0  0  0  0
    9.3415   13.3835   24.0594 C   0  0  0  0  0  0  0  0  0  0  0  0
    9.1667   14.2801   24.7796 O   0  0  0  0  0  0  0  0  0  0  0  0
   10.1052   13.3073   22.7406 N   0  0  0  0  0  0  0  0  0  0  0  0
   10.7122   14.2898   22.0057 C   0  0  1  0  0  0  0  0  0  0  0  0
   10.7397   15.6688   22.5558 C   0  0  0  0  0  0  0  0  0  0  0  0
   11.5286   16.2787   21.3909 C   0  0  1  0  0  0  0  0  0  0  0  0
   12.7317   15.3159   21.2767 C   0  0  0  0  0  0  0  0  0  0  0  0
   11.9144   14.0753   21.1856 C   0  0  2  0  0  0  0  0  0  0  0  0
   10.6123   14.4240   20.5398 C   0  0  2  0  0  0  0  0  0  0  0  0
   10.6359   15.8604   20.2010 C   0  0  0  0  0  0  0  0  0  0  0  0
   11.1713   16.0557   18.9906 F   0  0  0  0  0  0  0  0  0  0  0  0
    9.4173   16.4184   20.2469 F   0  0  0  0  0  0  0  0  0  0  0  0
    7.7378   11.7235   25.1193 C   0  0  0  0  0  0  0  0  0  0  0  0
    6.8946   12.4346   25.9875 C   0  0  0  0  0  0  0  0  0  0  0  0
    5.9574   11.7214   26.7160 C   0  0  0  0  0  0  0  0  0  0  0  0
    5.1727   12.3738   27.5792 F   0  0  0  0  0  0  0  0  0  0  0  0
    5.8343   10.3492   26.5848 C   0  0  0  0  0  0  0  0  0  0  0  0
    6.6523    9.6488   25.6964 C   0  0  0  0  0  0  0  0  0  0  0  0
    7.6157   10.3477   24.9745 C   0  0  0  0  0  0  0  0  0  0  0  0
  1  2  1  0
  2  3  1  0
  3  4  2  0
  4  5  1  0
  5  6  2  0
  5  7  1  0
  8  7  1  1
  8  9  1  0
 10  9  1  1
 10 11  1  0
 12 11  1  1
 12 13  1  0
 13 14  1  1
 14 15  1  0
 14 16  1  0
  4 17  1  0
 17 18  2  0
 18 19  1  0
 19 20  1  0
 19 21  2  0
 21 22  1  0
 22 23  2  0
 23  2  1  0
 12  8  1  0
 23 17  1  0
 13  8  1  0
 14 10  1  0
M  END
>  <alias>  (250) 
None

>  <rmsd(smina/fragmenstein)>  (250) 
0.64

>  <smiles>  (250) 
Cn1nc(C(=O)N[C@@]23C[C@H]4C[C@@H]2[C@@H]3C4(F)F)c2cc(F)ccc21

>  <gnina_score>  (250) 
5.844

>  <inspiration_score>  (250) 
None

>  <energy_score>  (250) 
-36.059507

>  <distance_score>  (250) 
0.787735

>  <gnina_score_min>  (250) 
5.903

>  <inchikey>  (250) 
YUMKARFVQHDYAU-KTEIXFGJSA-N

>  <exports>  (250) 
['/opt/xchem-fragalysis-2/maxwin/BulkDock/OUTPUTS/openbind_a71ev2a_c2_elabs_1LOUU54.sdf', '/opt/xchem-fragalysis-2/maxwin/BulkDock/OUTPUTS/openbind_a71ev2a_c2_elabs_1LSYIDY.sdf']

>  <name>  (250) 
P570406

>  <ref_pdb>  (250) 
A2339a

>  <subsites>  (250) 
None

>  <HIPPO Pose ID>  (250) 
570406

>  <ref_mols>  (250) 
A2339a

>  <HIPPO Compound ID>  (250) 
411325

>  <tags>  (250) 
openbind_a71ev2a_c2_elabs,syndirella_product,openbind_a71ev2a_c2_elabs_scored,BulkDock Fragalysis export,openbind_a71ev2a_c2_elabs_scored_top80percent,openbind_a71ev2a_c2_elabs_scored_top80percent_despaghettified,syndirella_placed

>  <smina_score_min>  (250) 
-7.166

$$$$
P570408
     RDKit          3D

 23 26  0  0  0  0  0  0  0  0999 V2000
   10.9348   15.1498   26.6706 C   0  0  0  0  0  0  0  0  0  0  0  0
   11.2993   14.8813   25.2690 C   0  0  0  0  0  0  0  0  0  0  0  0
   11.0105   15.5836   24.2074 N   0  0  0  0  0  0  0  0  0  0  0  0
   11.5075   14.8125   23.1788 C   0  0  0  0  0  0  0  0  0  0  0  0
   10.5092   14.5511   21.9820 C   0  0  0  0  0  0  0  0  0  0  0  0
    9.6745   13.5664   22.5256 N   0  0  0  0  0  0  0  0  0  0  0  0
    8.6502   13.6513   23.5135 C   0  0  0  0  0  0  0  0  0  0  0  0
    8.1803   14.5972   24.0738 O   0  0  0  0  0  0  0  0  0  0  0  0
    8.2499   12.2990   23.8961 C   0  0  0  0  0  0  0  0  0  0  0  0
    8.9015   11.2389   23.3819 N   0  0  0  0  0  0  0  0  0  0  0  0
    8.3984   10.1868   24.0470 N   0  0  0  0  0  0  0  0  0  0  0  0
    8.9132    8.8766   23.7268 C   0  0  0  0  0  0  0  0  0  0  0  0
    7.4453   10.5346   24.9745 C   0  0  0  0  0  0  0  0  0  0  0  0
    6.6268    9.7897   25.8254 C   0  0  0  0  0  0  0  0  0  0  0  0
    5.7895   10.4694   26.7121 C   0  0  0  0  0  0  0  0  0  0  0  0
    5.7558   11.8546   26.7196 C   0  0  0  0  0  0  0  0  0  0  0  0
    4.9544   12.4834   27.5887 F   0  0  0  0  0  0  0  0  0  0  0  0
    6.5286   12.6037   25.8391 C   0  0  0  0  0  0  0  0  0  0  0  0
    7.3702   11.9240   24.9373 C   0  0  0  0  0  0  0  0  0  0  0  0
   10.9356   14.7172   20.5642 C   0  0  0  0  0  0  0  0  0  0  0  0
    9.9901   15.7071   21.1790 C   0  0  0  0  0  0  0  0  0  0  0  0
   12.2901   13.8009   23.6071 N   0  0  0  0  0  0  0  0  0  0  0  0
   12.0851   13.8023   24.9894 O   0  0  0  0  0  0  0  0  0  0  0  0
  1  2  1  0
  2  3  2  0
  3  4  1  0
  4  5  1  0
  5  6  1  0
  6  7  1  0
  7  8  2  0
  7  9  1  0
  9 10  2  0
 10 11  1  0
 11 12  1  0
 11 13  1  0
 13 14  2  0
 14 15  1  0
 15 16  2  0
 16 17  1  0
 16 18  1  0
 18 19  2  0
  5 20  1  0
 20 21  1  0
  4 22  2  0
 22 23  1  0
 23  2  1  0
 21  5  1  0
 19  9  1  0
 19 13  1  0
M  END
>  <alias>  (251) 
None

>  <rmsd(smina/fragmenstein)>  (251) 
0.432

>  <smiles>  (251) 
Cc1nc(C2(NC(=O)c3nn(C)c4ccc(F)cc34)CC2)no1

>  <gnina_score>  (251) 
5.876

>  <inspiration_score>  (251) 
None

>  <energy_score>  (251) 
-29.355855

>  <distance_score>  (251) 
0.988779

>  <gnina_score_min>  (251) 
5.763

>  <inchikey>  (251) 
PRMYTRLRUKFVRF-UHFFFAOYSA-N

>  <exports>  (251) 
['/opt/xchem-fragalysis-2/maxwin/BulkDock/OUTPUTS/openbind_a71ev2a_c2_elabs_1LOUU54.sdf', '/opt/xchem-fragalysis-2/maxwin/BulkDock/OUTPUTS/openbind_a71ev2a_c2_elabs_1LSYIDY.sdf']

>  <name>  (251) 
P570408

>  <ref_pdb>  (251) 
A2339a

>  <subsites>  (251) 
None

>  <HIPPO Pose ID>  (251) 
570408

>  <ref_mols>  (251) 
A2339a

>  <HIPPO Compound ID>  (251) 
411327

>  <tags>  (251) 
openbind_a71ev2a_c2_elabs,syndirella_product,openbind_a71ev2a_c2_elabs_scored,BulkDock Fragalysis export,openbind_a71ev2a_c2_elabs_scored_top80percent,openbind_a71ev2a_c2_elabs_scored_top80percent_despaghettified,syndirella_placed

>  <smina_score_min>  (251) 
-5.933

$$$$
P570409
     RDKit          3D

 23 26  0  0  0  0  0  0  0  0999 V2000
    9.4255    8.8559   23.3173 C   0  0  0  0  0  0  0  0  0  0  0  0
    9.0254   10.1802   23.7334 N   0  0  0  0  0  0  0  0  0  0  0  0
    9.7212   11.2253   23.2574 N   0  0  0  0  0  0  0  0  0  0  0  0
    9.2412   12.2854   23.9350 C   0  0  0  0  0  0  0  0  0  0  0  0
    9.8991   13.5966   23.8305 C   0  0  0  0  0  0  0  0  0  0  0  0
    9.6486   14.4689   24.5586 O   0  0  0  0  0  0  0  0  0  0  0  0
   10.9173   13.5160   22.6924 N   0  0  0  0  0  0  0  0  0  0  0  0
   11.9018   14.4453   22.2684 C   0  0  0  0  0  0  0  0  0  0  0  0
   11.5918   14.8173   20.8872 C   0  0  0  0  0  0  0  0  0  0  0  0
   12.1999   14.4726   19.7104 C   0  0  0  0  0  0  0  0  0  0  0  0
   11.4447   15.0857   18.7087 C   0  0  0  0  0  0  0  0  0  0  0  0
   10.4366   15.8011   19.2014 N   0  0  0  0  0  0  0  0  0  0  0  0
   10.5501   15.6136   20.5237 N   0  0  0  0  0  0  0  0  0  0  0  0
    9.6647   16.2686   21.4856 C   0  0  0  0  0  0  0  0  0  0  0  0
    8.1902   16.0306   21.5314 C   0  0  0  0  0  0  0  0  0  0  0  0
    8.7345   17.3676   21.0732 C   0  0  0  0  0  0  0  0  0  0  0  0
    8.1374   11.9255   24.7476 C   0  0  0  0  0  0  0  0  0  0  0  0
    7.2520   12.6078   25.6035 C   0  0  0  0  0  0  0  0  0  0  0  0
    6.3165   11.8669   26.3210 C   0  0  0  0  0  0  0  0  0  0  0  0
    5.4978   12.4944   27.1748 F   0  0  0  0  0  0  0  0  0  0  0  0
    6.2394   10.4869   26.2064 C   0  0  0  0  0  0  0  0  0  0  0  0
    7.1054    9.8015   25.3531 C   0  0  0  0  0  0  0  0  0  0  0  0
    8.0440   10.5403   24.6259 C   0  0  0  0  0  0  0  0  0  0  0  0
  1  2  1  0
  2  3  1  0
  3  4  2  0
  4  5  1  0
  5  6  2  0
  5  7  1  0
  7  8  1  0
  8  9  1  0
  9 10  2  0
 10 11  1  0
 11 12  2  0
 12 13  1  0
 13 14  1  0
 14 15  1  0
 15 16  1  0
  4 17  1  0
 17 18  2  0
 18 19  1  0
 19 20  1  0
 19 21  2  0
 21 22  1  0
 22 23  2  0
 23  2  1  0
 13  9  1  0
 16 14  1  0
 23 17  1  0
M  END
>  <alias>  (252) 
None

>  <rmsd(smina/fragmenstein)>  (252) 
0.546

>  <smiles>  (252) 
Cn1nc(C(=O)NCc2ccnn2C2CC2)c2cc(F)ccc21

>  <gnina_score>  (252) 
6.12

>  <inspiration_score>  (252) 
None

>  <energy_score>  (252) 
-18.975623

>  <distance_score>  (252) 
0.550728

>  <gnina_score_min>  (252) 
6.133

>  <inchikey>  (252) 
RSVAKVHVRIFSHS-UHFFFAOYSA-N

>  <exports>  (252) 
['/opt/xchem-fragalysis-2/maxwin/BulkDock/OUTPUTS/openbind_a71ev2a_c2_elabs_1LOUU54.sdf', '/opt/xchem-fragalysis-2/maxwin/BulkDock/OUTPUTS/openbind_a71ev2a_c2_elabs_1LSYIDY.sdf']

>  <name>  (252) 
P570409

>  <ref_pdb>  (252) 
A2339a

>  <subsites>  (252) 
None

>  <HIPPO Pose ID>  (252) 
570409

>  <ref_mols>  (252) 
A2339a

>  <HIPPO Compound ID>  (252) 
411334

>  <tags>  (252) 
openbind_a71ev2a_c2_elabs,syndirella_product,openbind_a71ev2a_c2_elabs_scored,BulkDock Fragalysis export,openbind_a71ev2a_c2_elabs_scored_top80percent,openbind_a71ev2a_c2_elabs_scored_6plus,openbind_a71ev2a_c2_elabs_scored_top80percent_despaghettified,syndirella_placed

>  <smina_score_min>  (252) 
-6.848

$$$$
P570412
     RDKit          3D

 23 26  0  0  0  0  0  0  0  0999 V2000
    9.7744   16.9406   20.7576 C   0  0  0  0  0  0  0  0  0  0  0  0
    9.7267   15.4768   20.5760 C   0  0  1  0  0  0  0  0  0  0  0  0
   10.9292   14.7114   20.1055 C   0  0  0  0  0  0  0  0  0  0  0  0
   10.3952   14.5158   21.4888 C   0  0  2  0  0  0  0  0  0  0  0  0
    9.7093   13.4660   22.0927 N   0  0  0  0  0  0  0  0  0  0  0  0
    8.5305   13.4791   23.0666 C   0  0  0  0  0  0  0  0  0  0  0  0
    7.8892   14.3649   23.4633 O   0  0  0  0  0  0  0  0  0  0  0  0
    8.3584   12.1253   23.5561 C   0  0  0  0  0  0  0  0  0  0  0  0
    9.1280   11.1151   23.1095 N   0  0  0  0  0  0  0  0  0  0  0  0
    8.6946   10.0486   23.8004 N   0  0  0  0  0  0  0  0  0  0  0  0
    9.2696    8.7608   23.4905 C   0  0  0  0  0  0  0  0  0  0  0  0
    7.7344   10.3694   24.7316 C   0  0  0  0  0  0  0  0  0  0  0  0
    6.9559    9.6156   25.6029 C   0  0  0  0  0  0  0  0  0  0  0  0
    6.0997   10.2747   26.4882 C   0  0  0  0  0  0  0  0  0  0  0  0
    6.0288   11.6576   26.4899 C   0  0  0  0  0  0  0  0  0  0  0  0
    5.2440   12.2750   27.3801 F   0  0  0  0  0  0  0  0  0  0  0  0
    6.7476   12.4163   25.5787 C   0  0  0  0  0  0  0  0  0  0  0  0
    7.5814   11.7467   24.6655 C   0  0  0  0  0  0  0  0  0  0  0  0
   11.3911   14.7730   22.6773 C   0  0  0  0  0  0  0  0  0  0  0  0
   12.4037   13.8507   22.8481 C   0  0  0  0  0  0  0  0  0  0  0  0
   12.5565   13.4631   24.2130 C   0  0  0  0  0  0  0  0  0  0  0  0
   11.7468   14.2116   25.0317 C   0  0  0  0  0  0  0  0  0  0  0  0
   10.8085   15.3131   24.1797 S   0  0  0  0  0  0  0  0  0  0  0  0
  2  1  1  1
  2  3  1  0
  3  4  1  0
  4  5  1  6
  5  6  1  0
  6  7  2  0
  6  8  1  0
  8  9  2  0
  9 10  1  0
 10 11  1  0
 10 12  1  0
 12 13  2  0
 13 14  1  0
 14 15  2  0
 15 16  1  0
 15 17  1  0
 17 18  2  0
  4 19  1  0
 19 20  2  0
 20 21  1  0
 21 22  2  0
 22 23  1  0
  4  2  1  0
 18  8  1  0
 23 19  1  0
 18 12  1  0
M  END
>  <alias>  (253) 
None

>  <rmsd(smina/fragmenstein)>  (253) 
0.843

>  <smiles>  (253) 
C[C@H]1C[C@@]1(NC(=O)c1nn(C)c2ccc(F)cc12)c1cccs1

>  <gnina_score>  (253) 
6.142

>  <inspiration_score>  (253) 
None

>  <energy_score>  (253) 
-32.061332

>  <distance_score>  (253) 
0.877944

>  <gnina_score_min>  (253) 
5.838

>  <inchikey>  (253) 
AZUWBMIEKYQLRL-BTDLBPIBSA-N

>  <exports>  (253) 
['/opt/xchem-fragalysis-2/maxwin/BulkDock/OUTPUTS/openbind_a71ev2a_c2_elabs_1LOUU54.sdf', '/opt/xchem-fragalysis-2/maxwin/BulkDock/OUTPUTS/openbind_a71ev2a_c2_elabs_1LSYIDY.sdf']

>  <name>  (253) 
P570412

>  <ref_pdb>  (253) 
A2339a

>  <subsites>  (253) 
None

>  <HIPPO Pose ID>  (253) 
570412

>  <ref_mols>  (253) 
A2339a

>  <HIPPO Compound ID>  (253) 
411335

>  <tags>  (253) 
openbind_a71ev2a_c2_elabs,syndirella_product,openbind_a71ev2a_c2_elabs_scored,BulkDock Fragalysis export,openbind_a71ev2a_c2_elabs_scored_top80percent,openbind_a71ev2a_c2_elabs_scored_top80percent_despaghettified,syndirella_placed

>  <smina_score_min>  (253) 
-5.571

$$$$
P570413
     RDKit          3D

 23 26  0  0  0  0  0  0  0  0999 V2000
    9.5735    9.1350   23.2236 C   0  0  0  0  0  0  0  0  0  0  0  0
    9.0232   10.3829   23.7120 N   0  0  0  0  0  0  0  0  0  0  0  0
    9.4290   11.5440   23.1547 N   0  0  0  0  0  0  0  0  0  0  0  0
    8.6489   12.4763   23.7335 C   0  0  0  0  0  0  0  0  0  0  0  0
    8.4487   13.8113   23.1514 C   0  0  0  0  0  0  0  0  0  0  0  0
    7.8064   14.6133   23.6981 O   0  0  0  0  0  0  0  0  0  0  0  0
    9.1140   13.8430   21.7726 N   0  0  0  0  0  0  0  0  0  0  0  0
    9.0545   14.8304   20.7283 C   0  0  1  0  0  0  0  0  0  0  0  0
    8.8533   16.2111   21.3298 C   0  0  0  0  0  0  0  0  0  0  0  0
    9.8308   17.0599   20.5885 C   0  0  0  0  0  0  0  0  0  0  0  0
   10.9295   16.1497   20.3911 N   0  0  0  0  0  0  0  0  0  0  0  0
   11.8190   15.9586   21.5089 C   0  0  0  0  0  0  0  0  0  0  0  0
   13.1248   15.3294   21.2273 C   0  0  0  0  0  0  0  0  0  0  0  0
   12.1714   14.6217   22.1303 C   0  0  0  0  0  0  0  0  0  0  0  0
   10.3569   14.9710   19.9389 C   0  0  0  0  0  0  0  0  0  0  0  0
   10.8950   14.1976   19.1696 O   0  0  0  0  0  0  0  0  0  0  0  0
    7.8597   11.9301   24.7720 C   0  0  0  0  0  0  0  0  0  0  0  0
    6.9093   12.4411   25.6740 C   0  0  0  0  0  0  0  0  0  0  0  0
    6.1593   11.5466   26.4244 C   0  0  0  0  0  0  0  0  0  0  0  0
    5.2712   12.0241   27.3048 F   0  0  0  0  0  0  0  0  0  0  0  0
    6.3054   10.1758   26.2727 C   0  0  0  0  0  0  0  0  0  0  0  0
    7.2559    9.6605   25.3856 C   0  0  0  0  0  0  0  0  0  0  0  0
    8.0402   10.5572   24.6591 C   0  0  0  0  0  0  0  0  0  0  0  0
  1  2  1  0
  2  3  1  0
  3  4  2  0
  4  5  1  0
  5  6  2  0
  5  7  1  0
  8  7  1  1
  8  9  1  0
  9 10  1  0
 10 11  1  0
 11 12  1  0
 12 13  1  0
 13 14  1  0
 11 15  1  0
 15 16  2  0
  4 17  1  0
 17 18  2  0
 18 19  1  0
 19 20  1  0
 19 21  2  0
 21 22  1  0
 22 23  2  0
 23  2  1  0
 15  8  1  0
 23 17  1  0
 14 12  1  0
M  END
>  <alias>  (254) 
None

>  <rmsd(smina/fragmenstein)>  (254) 
0.556

>  <smiles>  (254) 
Cn1nc(C(=O)N[C@H]2CCN(C3CC3)C2=O)c2cc(F)ccc21

>  <gnina_score>  (254) 
5.989

>  <inspiration_score>  (254) 
None

>  <energy_score>  (254) 
-4.655145

>  <distance_score>  (254) 
1.187021

>  <gnina_score_min>  (254) 
5.97

>  <inchikey>  (254) 
CLPUHBYHGYIZFB-LBPRGKRZSA-N

>  <exports>  (254) 
['/opt/xchem-fragalysis-2/maxwin/BulkDock/OUTPUTS/openbind_a71ev2a_c2_elabs_1LOUU54.sdf', '/opt/xchem-fragalysis-2/maxwin/BulkDock/OUTPUTS/openbind_a71ev2a_c2_elabs_1LSYIDY.sdf']

>  <name>  (254) 
P570413

>  <ref_pdb>  (254) 
A2339a

>  <subsites>  (254) 
None

>  <HIPPO Pose ID>  (254) 
570413

>  <ref_mols>  (254) 
A2339a

>  <HIPPO Compound ID>  (254) 
411336

>  <tags>  (254) 
openbind_a71ev2a_c2_elabs,syndirella_product,openbind_a71ev2a_c2_elabs_scored,BulkDock Fragalysis export,openbind_a71ev2a_c2_elabs_scored_top80percent,openbind_a71ev2a_c2_elabs_scored_top80percent_despaghettified,syndirella_placed

>  <smina_score_min>  (254) 
-6.756

$$$$
P570416
     RDKit          3D

 23 26  0  0  0  0  0  0  0  0999 V2000
    9.5613    8.3006   23.2147 C   0  0  0  0  0  0  0  0  0  0  0  0
    9.2176    9.6202   23.6626 N   0  0  0  0  0  0  0  0  0  0  0  0
    9.9401   10.6522   23.2038 N   0  0  0  0  0  0  0  0  0  0  0  0
    9.5443   11.6587   23.9782 C   0  0  0  0  0  0  0  0  0  0  0  0
    9.9945   13.0091   23.8678 C   0  0  0  0  0  0  0  0  0  0  0  0
   10.8472   13.5090   24.4775 O   0  0  0  0  0  0  0  0  0  0  0  0
    9.0247   13.6017   22.8585 N   0  0  0  0  0  0  0  0  0  0  0  0
    8.8316   14.9108   22.4591 C   0  0  0  0  0  0  0  0  0  0  0  0
    7.6906   15.4047   23.3762 C   0  0  2  0  0  0  0  0  0  0  0  0
    6.7348   16.4507   22.8858 C   0  0  0  0  0  0  0  0  0  0  0  0
    5.6064   16.6299   23.9034 C   0  0  0  0  0  0  0  0  0  0  0  0
    6.0994   16.6979   25.3491 C   0  0  0  0  0  0  0  0  0  0  0  0
    7.5225   16.7810   25.4403 O   0  0  0  0  0  0  0  0  0  0  0  0
    8.1534   15.6637   24.8243 C   0  0  0  0  0  0  0  0  0  0  0  0
    8.9269   15.2636   21.0044 C   0  0  0  0  0  0  0  0  0  0  0  0
   10.0280   15.6731   21.9169 C   0  0  0  0  0  0  0  0  0  0  0  0
    8.3809   11.3464   24.7321 C   0  0  0  0  0  0  0  0  0  0  0  0
    7.4710   12.0289   25.5648 C   0  0  0  0  0  0  0  0  0  0  0  0
    6.4445   11.3423   26.1963 C   0  0  0  0  0  0  0  0  0  0  0  0
    5.6190   12.0021   27.0188 F   0  0  0  0  0  0  0  0  0  0  0  0
    6.3322    9.9810   26.0482 C   0  0  0  0  0  0  0  0  0  0  0  0
    7.2446    9.3095   25.2336 C   0  0  0  0  0  0  0  0  0  0  0  0
    8.2268    9.9960   24.5360 C   0  0  0  0  0  0  0  0  0  0  0  0
  1  2  1  0
  2  3  1  0
  3  4  2  0
  4  5  1  0
  5  6  2  0
  5  7  1  0
  7  8  1  0
  9  8  1  6
  9 10  1  0
 10 11  1  0
 11 12  1  0
 12 13  1  0
 13 14  1  0
  8 15  1  0
 15 16  1  0
  4 17  1  0
 17 18  2  0
 18 19  1  0
 19 20  1  0
 19 21  2  0
 21 22  1  0
 22 23  2  0
 23  2  1  0
 16  8  1  0
 23 17  1  0
 14  9  1  0
M  END
>  <alias>  (255) 
None

>  <rmsd(smina/fragmenstein)>  (255) 
0.38

>  <smiles>  (255) 
Cn1nc(C(=O)NC2([C@@H]3CCCOC3)CC2)c2cc(F)ccc21

>  <gnina_score>  (255) 
5.771

>  <inspiration_score>  (255) 
None

>  <energy_score>  (255) 
-8.073198

>  <distance_score>  (255) 
1.204101

>  <gnina_score_min>  (255) 
5.668

>  <inchikey>  (255) 
XXTDQGMYNJNAEM-LLVKDONJSA-N

>  <exports>  (255) 
['/opt/xchem-fragalysis-2/maxwin/BulkDock/OUTPUTS/openbind_a71ev2a_c2_elabs_1LOUU54.sdf', '/opt/xchem-fragalysis-2/maxwin/BulkDock/OUTPUTS/openbind_a71ev2a_c2_elabs_1LSYIDY.sdf']

>  <name>  (255) 
P570416

>  <ref_pdb>  (255) 
A2339a

>  <subsites>  (255) 
None

>  <HIPPO Pose ID>  (255) 
570416

>  <ref_mols>  (255) 
A2339a

>  <HIPPO Compound ID>  (255) 
411346

>  <tags>  (255) 
openbind_a71ev2a_c2_elabs,syndirella_product,openbind_a71ev2a_c2_elabs_scored,BulkDock Fragalysis export,openbind_a71ev2a_c2_elabs_scored_top80percent,openbind_a71ev2a_c2_elabs_scored_top80percent_despaghettified,syndirella_placed

>  <smina_score_min>  (255) 
-5.02

$$$$
P570418
     RDKit          3D

 23 26  0  0  0  0  0  0  0  0999 V2000
    9.4140    8.8868   23.1148 C   0  0  0  0  0  0  0  0  0  0  0  0
    9.0751   10.1590   23.7106 N   0  0  0  0  0  0  0  0  0  0  0  0
    9.8182   11.2374   23.3910 N   0  0  0  0  0  0  0  0  0  0  0  0
    9.3869   12.1834   24.2430 C   0  0  0  0  0  0  0  0  0  0  0  0
   10.0981   13.4497   24.4330 C   0  0  0  0  0  0  0  0  0  0  0  0
    9.9028   14.1062   25.3725 O   0  0  0  0  0  0  0  0  0  0  0  0
   10.9591   13.7144   23.2032 N   0  0  0  0  0  0  0  0  0  0  0  0
   11.6868   14.8717   22.8175 C   0  0  0  0  0  0  0  0  0  0  0  0
   11.3752   15.4616   21.4453 C   0  0  1  0  0  0  0  0  0  0  0  0
   12.0633   14.6845   20.3415 C   0  0  0  0  0  0  0  0  0  0  0  0
   11.2781   14.9907   19.0919 C   0  0  0  0  0  0  0  0  0  0  0  0
   10.0818   15.8035   19.5485 C   0  0  0  0  0  0  0  0  0  0  0  0
    9.9923   15.7189   21.0132 N   0  0  0  0  0  0  0  0  0  0  0  0
    8.9148   14.8234   21.4468 C   0  0  0  0  0  0  0  0  0  0  0  0
    8.2154   14.9333   22.7794 C   0  0  0  0  0  0  0  0  0  0  0  0
    7.5453   15.4535   21.5766 C   0  0  0  0  0  0  0  0  0  0  0  0
    8.2001   11.7914   24.9057 C   0  0  0  0  0  0  0  0  0  0  0  0
    7.2762   12.4130   25.7682 C   0  0  0  0  0  0  0  0  0  0  0  0
    6.2955   11.6317   26.3666 C   0  0  0  0  0  0  0  0  0  0  0  0
    5.4413   12.2005   27.2266 F   0  0  0  0  0  0  0  0  0  0  0  0
    6.2279   10.2659   26.1414 C   0  0  0  0  0  0  0  0  0  0  0  0
    7.1276    9.6528   25.2660 C   0  0  0  0  0  0  0  0  0  0  0  0
    8.0842   10.4383   24.6241 C   0  0  0  0  0  0  0  0  0  0  0  0
  1  2  1  0
  2  3  1  0
  3  4  2  0
  4  5  1  0
  5  6  2  0
  5  7  1  0
  7  8  1  0
  9  8  1  1
  9 10  1  0
 10 11  1  0
 11 12  1  0
 12 13  1  0
 13 14  1  0
 14 15  1  0
 15 16  1  0
  4 17  1  0
 17 18  2  0
 18 19  1  0
 19 20  1  0
 19 21  2  0
 21 22  1  0
 22 23  2  0
 23  2  1  0
 13  9  1  0
 16 14  1  0
 23 17  1  0
M  END
>  <alias>  (256) 
None

>  <rmsd(smina/fragmenstein)>  (256) 
0.373

>  <smiles>  (256) 
Cn1nc(C(=O)NC[C@H]2CCCN2C2CC2)c2cc(F)ccc21

>  <gnina_score>  (256) 
6.035

>  <inspiration_score>  (256) 
None

>  <energy_score>  (256) 
-23.300322

>  <distance_score>  (256) 
0.725257

>  <gnina_score_min>  (256) 
6.089

>  <inchikey>  (256) 
JBBHAHWFXNGITP-CYBMUJFWSA-N

>  <exports>  (256) 
['/opt/xchem-fragalysis-2/maxwin/BulkDock/OUTPUTS/openbind_a71ev2a_c2_elabs_1LOUU54.sdf', '/opt/xchem-fragalysis-2/maxwin/BulkDock/OUTPUTS/openbind_a71ev2a_c2_elabs_1LSYIDY.sdf']

>  <name>  (256) 
P570418

>  <ref_pdb>  (256) 
A2339a

>  <subsites>  (256) 
None

>  <HIPPO Pose ID>  (256) 
570418

>  <ref_mols>  (256) 
A2339a

>  <HIPPO Compound ID>  (256) 
411347

>  <tags>  (256) 
openbind_a71ev2a_c2_elabs,syndirella_product,openbind_a71ev2a_c2_elabs_scored,BulkDock Fragalysis export,openbind_a71ev2a_c2_elabs_scored_top80percent,openbind_a71ev2a_c2_elabs_scored_6plus,openbind_a71ev2a_c2_elabs_scored_top80percent_despaghettified,syndirella_placed

>  <smina_score_min>  (256) 
-7.182

$$$$
P570421
     RDKit          3D

 23 26  0  0  0  0  0  0  0  0999 V2000
    9.2410    9.2012   23.4791 C   0  0  0  0  0  0  0  0  0  0  0  0
    8.6749   10.4696   23.8913 N   0  0  0  0  0  0  0  0  0  0  0  0
    9.0975   11.5906   23.2858 N   0  0  0  0  0  0  0  0  0  0  0  0
    8.4657   12.5999   23.9319 C   0  0  0  0  0  0  0  0  0  0  0  0
    8.7411   13.9987   23.5380 C   0  0  0  0  0  0  0  0  0  0  0  0
    8.5576   14.9310   24.2143 O   0  0  0  0  0  0  0  0  0  0  0  0
    9.3855   13.8876   22.1472 N   0  0  0  0  0  0  0  0  0  0  0  0
   10.0159   14.8655   21.3467 C   0  0  0  0  0  0  0  0  0  0  0  0
   11.5029   14.5467   21.2576 C   0  0  0  0  0  0  0  0  0  0  0  0
   12.4561   15.3287   22.1528 C   0  0  0  0  0  0  0  0  0  0  0  0
   12.3360   14.1803   23.1919 C   0  0  0  0  0  0  0  0  0  0  0  0
   13.4295   13.7848   23.8729 F   0  0  0  0  0  0  0  0  0  0  0  0
   11.3912   14.3629   24.1416 F   0  0  0  0  0  0  0  0  0  0  0  0
   11.9891   13.2888   22.0096 C   0  0  0  0  0  0  0  0  0  0  0  0
    9.3762   15.2404   20.0486 C   0  0  0  0  0  0  0  0  0  0  0  0
    9.4469   16.2395   21.1498 C   0  0  0  0  0  0  0  0  0  0  0  0
    7.6180   12.1015   24.9385 C   0  0  0  0  0  0  0  0  0  0  0  0
    6.7499   12.6756   25.8775 C   0  0  0  0  0  0  0  0  0  0  0  0
    5.9843   11.8249   26.6656 C   0  0  0  0  0  0  0  0  0  0  0  0
    5.1647   12.3556   27.5793 F   0  0  0  0  0  0  0  0  0  0  0  0
    6.0485   10.4444   26.5342 C   0  0  0  0  0  0  0  0  0  0  0  0
    6.9234    9.8626   25.6166 C   0  0  0  0  0  0  0  0  0  0  0  0
    7.7183   10.7115   24.8446 C   0  0  0  0  0  0  0  0  0  0  0  0
  1  2  1  0
  2  3  1  0
  3  4  2  0
  4  5  1  0
  5  6  2  0
  5  7  1  0
  7  8  1  0
  8  9  1  0
  9 10  1  0
 10 11  1  0
 11 12  1  0
 11 13  1  0
 11 14  1  0
  8 15  1  0
 15 16  1  0
  4 17  1  0
 17 18  2  0
 18 19  1  0
 19 20  1  0
 19 21  2  0
 21 22  1  0
 22 23  2  0
 23  2  1  0
 16  8  1  0
 23 17  1  0
 14  9  1  0
M  END
>  <alias>  (257) 
None

>  <rmsd(smina/fragmenstein)>  (257) 
0.823

>  <smiles>  (257) 
Cn1nc(C(=O)NC2(C3CC(F)(F)C3)CC2)c2cc(F)ccc21

>  <gnina_score>  (257) 
5.935

>  <inspiration_score>  (257) 
None

>  <energy_score>  (257) 
-5.701545

>  <distance_score>  (257) 
1.141181

>  <gnina_score_min>  (257) 
5.688

>  <inchikey>  (257) 
XVRAZIOEHVMOLT-UHFFFAOYSA-N

>  <exports>  (257) 
['/opt/xchem-fragalysis-2/maxwin/BulkDock/OUTPUTS/openbind_a71ev2a_c2_elabs_1LOUU54.sdf', '/opt/xchem-fragalysis-2/maxwin/BulkDock/OUTPUTS/openbind_a71ev2a_c2_elabs_1LSYIDY.sdf']

>  <name>  (257) 
P570421

>  <ref_pdb>  (257) 
A2339a

>  <subsites>  (257) 
None

>  <HIPPO Pose ID>  (257) 
570421

>  <ref_mols>  (257) 
A2339a

>  <HIPPO Compound ID>  (257) 
411354

>  <tags>  (257) 
openbind_a71ev2a_c2_elabs,syndirella_product,openbind_a71ev2a_c2_elabs_scored,BulkDock Fragalysis export,openbind_a71ev2a_c2_elabs_scored_top80percent,openbind_a71ev2a_c2_elabs_scored_top80percent_despaghettified,syndirella_placed

>  <smina_score_min>  (257) 
-6.214

$$$$
P570422
     RDKit          3D

 23 25  0  0  0  0  0  0  0  0999 V2000
   11.8738   14.7351   28.1660 C   0  0  0  0  0  0  0  0  0  0  0  0
   11.4906   14.9889   27.0553 C   0  0  0  0  0  0  0  0  0  0  0  0
   11.0343   15.5667   25.8004 C   0  0  0  0  0  0  0  0  0  0  0  0
   11.1325   14.8445   24.5596 N   0  0  0  0  0  0  0  0  0  0  0  0
   11.3888   15.3553   23.1110 C   0  0  0  0  0  0  0  0  0  0  0  0
   11.6343   16.4244   22.7213 O   0  0  0  0  0  0  0  0  0  0  0  0
   11.1892   14.3215   22.0308 C   0  0  0  0  0  0  0  0  0  0  0  0
   10.3528   13.2977   22.4849 N   0  0  0  0  0  0  0  0  0  0  0  0
    9.0120   13.3619   23.2228 C   0  0  0  0  0  0  0  0  0  0  0  0
    8.3490   14.2750   23.5041 O   0  0  0  0  0  0  0  0  0  0  0  0
    8.6834   12.0246   23.6554 C   0  0  0  0  0  0  0  0  0  0  0  0
    9.3761   10.9644   23.2156 N   0  0  0  0  0  0  0  0  0  0  0  0
    8.7812    9.9241   23.8197 N   0  0  0  0  0  0  0  0  0  0  0  0
    9.2409    8.5986   23.4861 C   0  0  0  0  0  0  0  0  0  0  0  0
    7.8118   10.3071   24.7198 C   0  0  0  0  0  0  0  0  0  0  0  0
    6.9505    9.6057   25.5587 C   0  0  0  0  0  0  0  0  0  0  0  0
    6.1002   10.3158   26.4090 C   0  0  0  0  0  0  0  0  0  0  0  0
    6.1041   11.6996   26.4001 C   0  0  0  0  0  0  0  0  0  0  0  0
    5.3177   12.3644   27.2545 F   0  0  0  0  0  0  0  0  0  0  0  0
    6.9145   12.4114   25.5267 C   0  0  0  0  0  0  0  0  0  0  0  0
    7.7666   11.6923   24.6679 C   0  0  0  0  0  0  0  0  0  0  0  0
   12.2056   14.2590   20.9280 C   0  0  0  0  0  0  0  0  0  0  0  0
   10.8653   14.8380   20.6238 C   0  0  0  0  0  0  0  0  0  0  0  0
  1  2  3  0
  2  3  1  0
  3  4  1  0
  4  5  1  0
  5  6  2  0
  5  7  1  0
  7  8  1  0
  8  9  1  0
  9 10  2  0
  9 11  1  0
 11 12  2  0
 12 13  1  0
 13 14  1  0
 13 15  1  0
 15 16  2  0
 16 17  1  0
 17 18  2  0
 18 19  1  0
 18 20  1  0
 20 21  2  0
  7 22  1  0
 22 23  1  0
 23  7  1  0
 21 11  1  0
 21 15  1  0
M  END
>  <alias>  (258) 
None

>  <rmsd(smina/fragmenstein)>  (258) 
0.39

>  <smiles>  (258) 
C#CCNC(=O)C1(NC(=O)c2nn(C)c3ccc(F)cc23)CC1

>  <gnina_score>  (258) 
5.73

>  <inspiration_score>  (258) 
None

>  <energy_score>  (258) 
-81.15635

>  <distance_score>  (258) 
0.617939

>  <gnina_score_min>  (258) 
5.673

>  <inchikey>  (258) 
RONWIINXSSHNBW-UHFFFAOYSA-N

>  <exports>  (258) 
['/opt/xchem-fragalysis-2/maxwin/BulkDock/OUTPUTS/openbind_a71ev2a_c2_elabs_1LOUU54.sdf', '/opt/xchem-fragalysis-2/maxwin/BulkDock/OUTPUTS/openbind_a71ev2a_c2_elabs_1LSYIDY.sdf']

>  <name>  (258) 
P570422

>  <ref_pdb>  (258) 
A2339a

>  <subsites>  (258) 
None

>  <HIPPO Pose ID>  (258) 
570422

>  <ref_mols>  (258) 
A2339a

>  <HIPPO Compound ID>  (258) 
411355

>  <tags>  (258) 
openbind_a71ev2a_c2_elabs,syndirella_product,openbind_a71ev2a_c2_elabs_scored,BulkDock Fragalysis export,openbind_a71ev2a_c2_elabs_scored_top80percent,openbind_a71ev2a_c2_elabs_scored_top80percent_despaghettified,syndirella_placed

>  <smina_score_min>  (258) 
-4.867

$$$$
P570423
     RDKit          3D

 23 26  0  0  0  0  0  0  0  0999 V2000
   11.0749   14.8973   24.9218 C   0  0  0  0  0  0  0  0  0  0  0  0
   11.8773   14.4540   23.8270 O   0  0  0  0  0  0  0  0  0  0  0  0
   11.7077   15.1985   22.6840 C   0  0  0  0  0  0  0  0  0  0  0  0
   11.8775   16.3986   22.5914 O   0  0  0  0  0  0  0  0  0  0  0  0
   11.1778   14.4128   21.5470 C   0  0  2  0  0  0  0  0  0  0  0  0
   10.4090   13.3588   22.0674 N   0  0  0  0  0  0  0  0  0  0  0  0
    9.1650   13.3814   22.9635 C   0  0  0  0  0  0  0  0  0  0  0  0
    8.5310   14.2768   23.3518 O   0  0  0  0  0  0  0  0  0  0  0  0
    8.8605   12.0370   23.4249 C   0  0  0  0  0  0  0  0  0  0  0  0
    9.5269   10.9651   22.9754 N   0  0  0  0  0  0  0  0  0  0  0  0
    8.9752    9.9364   23.6417 N   0  0  0  0  0  0  0  0  0  0  0  0
    9.4529    8.6070   23.3504 C   0  0  0  0  0  0  0  0  0  0  0  0
    8.0105   10.3247   24.5431 C   0  0  0  0  0  0  0  0  0  0  0  0
    7.1653    9.6208   25.4009 C   0  0  0  0  0  0  0  0  0  0  0  0
    6.3037   10.3330   26.2379 C   0  0  0  0  0  0  0  0  0  0  0  0
    6.2959   11.7173   26.2119 C   0  0  0  0  0  0  0  0  0  0  0  0
    5.5010   12.3829   27.0594 F   0  0  0  0  0  0  0  0  0  0  0  0
    7.1017   12.4269   25.3277 C   0  0  0  0  0  0  0  0  0  0  0  0
    7.9574   11.7092   24.4667 C   0  0  0  0  0  0  0  0  0  0  0  0
   11.8875   14.5702   20.2000 C   0  0  0  0  0  0  0  0  0  0  0  0
   10.6106   15.2071   20.4445 C   0  0  0  0  0  0  0  0  0  0  0  0
    9.3236   15.2223   19.7818 C   0  0  0  0  0  0  0  0  0  0  0  0
    9.9040   16.4866   20.3851 C   0  0  0  0  0  0  0  0  0  0  0  0
  1  2  1  0
  2  3  1  0
  3  4  2  0
  3  5  1  0
  5  6  1  1
  6  7  1  0
  7  8  2  0
  7  9  1  0
  9 10  2  0
 10 11  1  0
 11 12  1  0
 11 13  1  0
 13 14  2  0
 14 15  1  0
 15 16  2  0
 16 17  1  0
 16 18  1  0
 18 19  2  0
  5 20  1  0
 20 21  1  0
 21 22  1  0
 22 23  1  0
 21  5  1  0
 19  9  1  0
 23 21  1  0
 19 13  1  0
M  END
>  <alias>  (259) 
None

>  <rmsd(smina/fragmenstein)>  (259) 
0.209

>  <smiles>  (259) 
COC(=O)[C@]1(NC(=O)c2nn(C)c3ccc(F)cc23)CC12CC2

>  <gnina_score>  (259) 
5.757

>  <inspiration_score>  (259) 
None

>  <energy_score>  (259) 
-28.239885

>  <distance_score>  (259) 
0.482398

>  <gnina_score_min>  (259) 
5.692

>  <inchikey>  (259) 
LDUWOFATPBXUDH-MRXNPFEDSA-N

>  <exports>  (259) 
['/opt/xchem-fragalysis-2/maxwin/BulkDock/OUTPUTS/openbind_a71ev2a_c2_elabs_1LOUU54.sdf', '/opt/xchem-fragalysis-2/maxwin/BulkDock/OUTPUTS/openbind_a71ev2a_c2_elabs_1LSYIDY.sdf']

>  <name>  (259) 
P570423

>  <ref_pdb>  (259) 
A2339a

>  <subsites>  (259) 
None

>  <HIPPO Pose ID>  (259) 
570423

>  <ref_mols>  (259) 
A2339a

>  <HIPPO Compound ID>  (259) 
411358

>  <tags>  (259) 
openbind_a71ev2a_c2_elabs,syndirella_product,openbind_a71ev2a_c2_elabs_scored,BulkDock Fragalysis export,openbind_a71ev2a_c2_elabs_scored_top80percent,openbind_a71ev2a_c2_elabs_scored_top80percent_despaghettified,syndirella_placed

>  <smina_score_min>  (259) 
-5.418

$$$$
P570425
     RDKit          3D

 23 26  0  0  0  0  0  0  0  0999 V2000
   11.8296   14.9857   18.3887 C   0  0  0  0  0  0  0  0  0  0  0  0
   11.6766   15.2275   19.8043 C   0  0  0  0  0  0  0  0  0  0  0  0
   12.4386   15.2364   20.9440 C   0  0  0  0  0  0  0  0  0  0  0  0
   11.6279   15.3543   22.0387 N   0  0  0  0  0  0  0  0  0  0  0  0
   10.4379   15.4495   21.4876 C   0  0  0  0  0  0  0  0  0  0  0  0
    9.0973   15.1623   22.1728 C   0  0  0  0  0  0  0  0  0  0  0  0
    9.0953   14.0354   22.9731 N   0  0  0  0  0  0  0  0  0  0  0  0
    8.8453   13.8826   24.4531 C   0  0  0  0  0  0  0  0  0  0  0  0
    8.6730   14.6829   25.2743 O   0  0  0  0  0  0  0  0  0  0  0  0
    8.7649   12.4408   24.6286 C   0  0  0  0  0  0  0  0  0  0  0  0
    9.3827   11.5714   23.8003 N   0  0  0  0  0  0  0  0  0  0  0  0
    8.8207   10.3817   24.0933 N   0  0  0  0  0  0  0  0  0  0  0  0
    9.3143    9.1963   23.4222 C   0  0  0  0  0  0  0  0  0  0  0  0
    7.7972   10.4942   25.0049 C   0  0  0  0  0  0  0  0  0  0  0  0
    6.9024    9.5837   25.5521 C   0  0  0  0  0  0  0  0  0  0  0  0
    5.9347   10.0456   26.4490 C   0  0  0  0  0  0  0  0  0  0  0  0
    5.8621   11.3920   26.7676 C   0  0  0  0  0  0  0  0  0  0  0  0
    4.9325   11.8289   27.6224 F   0  0  0  0  0  0  0  0  0  0  0  0
    6.7506   12.3064   26.2343 C   0  0  0  0  0  0  0  0  0  0  0  0
    7.7454   11.8310   25.3680 C   0  0  0  0  0  0  0  0  0  0  0  0
    8.0279   16.1870   22.0321 C   0  0  0  0  0  0  0  0  0  0  0  0
    7.9452   14.9744   21.1895 C   0  0  0  0  0  0  0  0  0  0  0  0
   10.4223   15.5250   20.1400 O   0  0  0  0  0  0  0  0  0  0  0  0
  1  2  1  0
  2  3  2  0
  3  4  1  0
  4  5  2  0
  5  6  1  0
  6  7  1  0
  7  8  1  0
  8  9  2  0
  8 10  1  0
 10 11  2  0
 11 12  1  0
 12 13  1  0
 12 14  1  0
 14 15  2  0
 15 16  1  0
 16 17  2  0
 17 18  1  0
 17 19  1  0
 19 20  2  0
  6 21  1  0
 21 22  1  0
  5 23  1  0
 23  2  1  0
 22  6  1  0
 20 10  1  0
 20 14  1  0
M  END
>  <alias>  (260) 
None

>  <rmsd(smina/fragmenstein)>  (260) 
0.439

>  <smiles>  (260) 
Cc1cnc(C2(NC(=O)c3nn(C)c4ccc(F)cc34)CC2)o1

>  <gnina_score>  (260) 
5.84

>  <inspiration_score>  (260) 
None

>  <energy_score>  (260) 
-9.968156

>  <distance_score>  (260) 
1.696771

>  <gnina_score_min>  (260) 
5.734

>  <inchikey>  (260) 
MHDNAOHRVUTYFR-UHFFFAOYSA-N

>  <exports>  (260) 
['/opt/xchem-fragalysis-2/maxwin/BulkDock/OUTPUTS/openbind_a71ev2a_c2_elabs_1LOUU54.sdf', '/opt/xchem-fragalysis-2/maxwin/BulkDock/OUTPUTS/openbind_a71ev2a_c2_elabs_1LSYIDY.sdf']

>  <name>  (260) 
P570425

>  <ref_pdb>  (260) 
A2339a

>  <subsites>  (260) 
None

>  <HIPPO Pose ID>  (260) 
570425

>  <ref_mols>  (260) 
A2339a

>  <HIPPO Compound ID>  (260) 
411360

>  <tags>  (260) 
openbind_a71ev2a_c2_elabs,syndirella_product,openbind_a71ev2a_c2_elabs_scored,BulkDock Fragalysis export,openbind_a71ev2a_c2_elabs_scored_top80percent,openbind_a71ev2a_c2_elabs_scored_top80percent_despaghettified,syndirella_placed

>  <smina_score_min>  (260) 
-6.802

$$$$
P570432
     RDKit          3D

 23 25  0  0  0  0  0  0  0  0999 V2000
   12.3797   13.5257   23.8519 C   0  0  0  0  0  0  0  0  0  0  0  0
   12.5775   13.6113   22.4423 O   0  0  0  0  0  0  0  0  0  0  0  0
   12.1763   14.7790   21.8633 C   0  0  0  0  0  0  0  0  0  0  0  0
   12.9245   15.7149   21.6348 O   0  0  0  0  0  0  0  0  0  0  0  0
   10.7153   14.8198   21.5532 C   0  0  1  0  0  0  0  0  0  0  0  0
    9.9663   13.8042   22.2068 N   0  0  0  0  0  0  0  0  0  0  0  0
    9.1442   13.8485   23.4999 C   0  0  0  0  0  0  0  0  0  0  0  0
    8.8836   14.7427   24.1986 O   0  0  0  0  0  0  0  0  0  0  0  0
    8.7781   12.4601   23.8165 C   0  0  0  0  0  0  0  0  0  0  0  0
    9.3991   11.4402   23.1905 N   0  0  0  0  0  0  0  0  0  0  0  0
    8.8766   10.3312   23.7468 N   0  0  0  0  0  0  0  0  0  0  0  0
    9.3821    9.0417   23.3255 C   0  0  0  0  0  0  0  0  0  0  0  0
    7.9099   10.6065   24.6840 C   0  0  0  0  0  0  0  0  0  0  0  0
    7.0776    9.7878   25.4506 C   0  0  0  0  0  0  0  0  0  0  0  0
    6.1901   10.3963   26.3400 C   0  0  0  0  0  0  0  0  0  0  0  0
    6.1506   11.7783   26.4546 C   0  0  0  0  0  0  0  0  0  0  0  0
    5.3226   12.3375   27.3450 F   0  0  0  0  0  0  0  0  0  0  0  0
    6.9629   12.5995   25.6799 C   0  0  0  0  0  0  0  0  0  0  0  0
    7.8496   11.9960   24.7721 C   0  0  0  0  0  0  0  0  0  0  0  0
   10.1083   16.1935   21.3077 C   0  0  0  0  0  0  0  0  0  0  0  0
   10.3118   15.2593   20.1917 C   0  0  0  0  0  0  0  0  0  0  0  0
    9.1531   14.8303   19.5978 F   0  0  0  0  0  0  0  0  0  0  0  0
   11.2119   15.5404   19.1964 F   0  0  0  0  0  0  0  0  0  0  0  0
  1  2  1  0
  2  3  1  0
  3  4  2  0
  3  5  1  0
  5  6  1  1
  6  7  1  0
  7  8  2  0
  7  9  1  0
  9 10  2  0
 10 11  1  0
 11 12  1  0
 11 13  1  0
 13 14  2  0
 14 15  1  0
 15 16  2  0
 16 17  1  0
 16 18  1  0
 18 19  2  0
  5 20  1  0
 20 21  1  0
 21 22  1  0
 21 23  1  0
 21  5  1  0
 19  9  1  0
 19 13  1  0
M  END
>  <alias>  (261) 
None

>  <rmsd(smina/fragmenstein)>  (261) 
0.278

>  <smiles>  (261) 
COC(=O)[C@@]1(NC(=O)c2nn(C)c3ccc(F)cc23)CC1(F)F

>  <gnina_score>  (261) 
5.879

>  <inspiration_score>  (261) 
None

>  <energy_score>  (261) 
-23.13061

>  <distance_score>  (261) 
0.744856

>  <gnina_score_min>  (261) 
5.733

>  <inchikey>  (261) 
NCIKZBYQLDTWOK-ZDUSSCGKSA-N

>  <exports>  (261) 
['/opt/xchem-fragalysis-2/maxwin/BulkDock/OUTPUTS/openbind_a71ev2a_c2_elabs_1LOUU54.sdf', '/opt/xchem-fragalysis-2/maxwin/BulkDock/OUTPUTS/openbind_a71ev2a_c2_elabs_1LSYIDY.sdf']

>  <name>  (261) 
P570432

>  <ref_pdb>  (261) 
A2339a

>  <subsites>  (261) 
None

>  <HIPPO Pose ID>  (261) 
570432

>  <ref_mols>  (261) 
A2339a

>  <HIPPO Compound ID>  (261) 
411367

>  <tags>  (261) 
openbind_a71ev2a_c2_elabs,syndirella_product,openbind_a71ev2a_c2_elabs_scored,BulkDock Fragalysis export,openbind_a71ev2a_c2_elabs_scored_top80percent,openbind_a71ev2a_c2_elabs_scored_top80percent_despaghettified,syndirella_placed

>  <smina_score_min>  (261) 
-7.428

$$$$
P570437
     RDKit          3D

 23 26  0  0  0  0  0  0  0  0999 V2000
    9.5341    8.9961   23.2311 C   0  0  0  0  0  0  0  0  0  0  0  0
    8.9974   10.2948   23.5753 N   0  0  0  0  0  0  0  0  0  0  0  0
    9.4466   11.3766   22.9108 N   0  0  0  0  0  0  0  0  0  0  0  0
    8.7248   12.4029   23.4040 C   0  0  0  0  0  0  0  0  0  0  0  0
    8.9092   13.7801   22.9058 C   0  0  0  0  0  0  0  0  0  0  0  0
    8.3741   14.6779   23.4270 O   0  0  0  0  0  0  0  0  0  0  0  0
    9.9399   13.7600   21.7493 N   0  0  0  0  0  0  0  0  0  0  0  0
   10.5858   14.8275   21.0717 C   0  0  0  0  0  0  0  0  0  0  0  0
   11.4723   15.5937   22.0267 C   0  0  0  0  0  0  0  0  0  0  0  0
   11.8044   14.7747   23.1818 N   0  0  0  0  0  0  0  0  0  0  0  0
   12.4399   13.5728   23.1622 C   0  0  0  0  0  0  0  0  0  0  0  0
   12.3770   13.1380   24.4517 C   0  0  0  0  0  0  0  0  0  0  0  0
   11.6698   14.0381   25.1983 N   0  0  0  0  0  0  0  0  0  0  0  0
   11.3023   15.0346   24.4086 N   0  0  0  0  0  0  0  0  0  0  0  0
    9.8724   15.5888   19.9988 C   0  0  0  0  0  0  0  0  0  0  0  0
   11.0720   14.7702   19.6484 C   0  0  0  0  0  0  0  0  0  0  0  0
    7.8942   11.9768   24.4753 C   0  0  0  0  0  0  0  0  0  0  0  0
    7.0176   12.6036   25.3813 C   0  0  0  0  0  0  0  0  0  0  0  0
    6.2762   11.8067   26.2498 C   0  0  0  0  0  0  0  0  0  0  0  0
    5.4527   12.3867   27.1324 F   0  0  0  0  0  0  0  0  0  0  0  0
    6.3672   10.4223   26.2230 C   0  0  0  0  0  0  0  0  0  0  0  0
    7.2573    9.7912   25.3519 C   0  0  0  0  0  0  0  0  0  0  0  0
    8.0339   10.5913   24.5085 C   0  0  0  0  0  0  0  0  0  0  0  0
  1  2  1  0
  2  3  1  0
  3  4  2  0
  4  5  1  0
  5  6  2  0
  5  7  1  0
  7  8  1  0
  8  9  1  0
  9 10  1  0
 10 11  1  0
 11 12  2  0
 12 13  1  0
 13 14  2  0
  8 15  1  0
 15 16  1  0
  4 17  1  0
 17 18  2  0
 18 19  1  0
 19 20  1  0
 19 21  2  0
 21 22  1  0
 22 23  2  0
 23  2  1  0
 16  8  1  0
 23 17  1  0
 14 10  1  0
M  END
>  <alias>  (262) 
None

>  <rmsd(smina/fragmenstein)>  (262) 
0.757

>  <smiles>  (262) 
Cn1nc(C(=O)NC2(Cn3ccnn3)CC2)c2cc(F)ccc21

>  <gnina_score>  (262) 
6.259

>  <inspiration_score>  (262) 
None

>  <energy_score>  (262) 
-26.085482

>  <distance_score>  (262) 
0.714027

>  <gnina_score_min>  (262) 
5.953

>  <inchikey>  (262) 
ZXDVZFXNPCVWDH-UHFFFAOYSA-N

>  <exports>  (262) 
['/opt/xchem-fragalysis-2/maxwin/BulkDock/OUTPUTS/openbind_a71ev2a_c2_elabs_1LOUU54.sdf', '/opt/xchem-fragalysis-2/maxwin/BulkDock/OUTPUTS/openbind_a71ev2a_c2_elabs_1LSYIDY.sdf']

>  <name>  (262) 
P570437

>  <ref_pdb>  (262) 
A2339a

>  <subsites>  (262) 
None

>  <HIPPO Pose ID>  (262) 
570437

>  <ref_mols>  (262) 
A2339a

>  <HIPPO Compound ID>  (262) 
411374

>  <tags>  (262) 
openbind_a71ev2a_c2_elabs,syndirella_product,openbind_a71ev2a_c2_elabs_scored,BulkDock Fragalysis export,openbind_a71ev2a_c2_elabs_scored_top80percent,openbind_a71ev2a_c2_elabs_scored_top80percent_despaghettified,syndirella_placed

>  <smina_score_min>  (262) 
-6.664

$$$$
P570438
     RDKit          3D

 23 26  0  0  0  0  0  0  0  0999 V2000
   10.5797   15.5016   18.8101 C   0  0  0  0  0  0  0  0  0  0  0  0
   10.8567   16.1554   20.0812 N   0  0  0  0  0  0  0  0  0  0  0  0
    9.6404   16.6575   20.7284 C   0  0  0  0  0  0  0  0  0  0  0  0
    8.7807   15.5502   21.3432 C   0  0  0  0  0  0  0  0  0  0  0  0
    9.6512   14.3677   21.7008 C   0  0  2  0  0  0  0  0  0  0  0  0
    9.1437   13.4320   22.6066 N   0  0  0  0  0  0  0  0  0  0  0  0
    8.6424   13.6052   24.0237 C   0  0  0  0  0  0  0  0  0  0  0  0
    8.4922   14.5647   24.6572 O   0  0  0  0  0  0  0  0  0  0  0  0
    8.3921   12.2397   24.4386 C   0  0  0  0  0  0  0  0  0  0  0  0
    8.9804   11.2227   23.7722 N   0  0  0  0  0  0  0  0  0  0  0  0
    8.4107   10.1265   24.2752 N   0  0  0  0  0  0  0  0  0  0  0  0
    8.8695    8.8475   23.7844 C   0  0  0  0  0  0  0  0  0  0  0  0
    7.4341   10.4194   25.1971 C   0  0  0  0  0  0  0  0  0  0  0  0
    6.5071    9.6480   25.8862 C   0  0  0  0  0  0  0  0  0  0  0  0
    5.6695   10.2748   26.8098 C   0  0  0  0  0  0  0  0  0  0  0  0
    5.7251   11.6475   26.9887 C   0  0  0  0  0  0  0  0  0  0  0  0
    4.9107   12.2334   27.8700 F   0  0  0  0  0  0  0  0  0  0  0  0
    6.5992   12.4380   26.2669 C   0  0  0  0  0  0  0  0  0  0  0  0
    7.4647   11.7992   25.3729 C   0  0  0  0  0  0  0  0  0  0  0  0
   10.9901   14.8140   22.2012 C   0  0  0  0  0  0  0  0  0  0  0  0
   11.6861   15.3420   21.0026 C   0  0  0  0  0  0  0  0  0  0  0  0
   13.1295   15.5351   21.2507 C   0  0  0  0  0  0  0  0  0  0  0  0
   12.6822   14.4241   20.3589 C   0  0  0  0  0  0  0  0  0  0  0  0
  1  2  1  0
  2  3  1  0
  3  4  1  0
  4  5  1  0
  5  6  1  1
  6  7  1  0
  7  8  2  0
  7  9  1  0
  9 10  2  0
 10 11  1  0
 11 12  1  0
 11 13  1  0
 13 14  2  0
 14 15  1  0
 15 16  2  0
 16 17  1  0
 16 18  1  0
 18 19  2  0
  5 20  1  0
 20 21  1  0
 21 22  1  0
 22 23  1  0
 21  2  1  0
 19  9  1  0
 23 21  1  0
 19 13  1  0
M  END
>  <alias>  (263) 
None

>  <rmsd(smina/fragmenstein)>  (263) 
0.504

>  <smiles>  (263) 
CN1CC[C@H](NC(=O)c2nn(C)c3ccc(F)cc23)CC12CC2

>  <gnina_score>  (263) 
5.891

>  <inspiration_score>  (263) 
None

>  <energy_score>  (263) 
-18.35497

>  <distance_score>  (263) 
1.299606

>  <gnina_score_min>  (263) 
5.752

>  <inchikey>  (263) 
SZYSDOKUMHORRX-LBPRGKRZSA-N

>  <exports>  (263) 
['/opt/xchem-fragalysis-2/maxwin/BulkDock/OUTPUTS/openbind_a71ev2a_c2_elabs_1LOUU54.sdf', '/opt/xchem-fragalysis-2/maxwin/BulkDock/OUTPUTS/openbind_a71ev2a_c2_elabs_1LSYIDY.sdf']

>  <name>  (263) 
P570438

>  <ref_pdb>  (263) 
A2339a

>  <subsites>  (263) 
None

>  <HIPPO Pose ID>  (263) 
570438

>  <ref_mols>  (263) 
A2339a

>  <HIPPO Compound ID>  (263) 
411375

>  <tags>  (263) 
openbind_a71ev2a_c2_elabs,syndirella_product,openbind_a71ev2a_c2_elabs_scored,BulkDock Fragalysis export,openbind_a71ev2a_c2_elabs_scored_top80percent,openbind_a71ev2a_c2_elabs_scored_top80percent_despaghettified,syndirella_placed

>  <smina_score_min>  (263) 
-6.988

$$$$
P570439
     RDKit          3D

 23 25  0  0  0  0  0  0  0  0999 V2000
    9.4121    8.7254   23.3980 C   0  0  0  0  0  0  0  0  0  0  0  0
    8.8537   10.0034   23.7701 N   0  0  0  0  0  0  0  0  0  0  0  0
    9.3467   11.1071   23.1774 N   0  0  0  0  0  0  0  0  0  0  0  0
    8.6274   12.0996   23.7219 C   0  0  0  0  0  0  0  0  0  0  0  0
    8.8313   13.4871   23.3916 C   0  0  0  0  0  0  0  0  0  0  0  0
    8.1763   14.3040   23.8980 O   0  0  0  0  0  0  0  0  0  0  0  0
   10.0216   13.6190   22.4393 N   0  0  0  0  0  0  0  0  0  0  0  0
   10.7035   14.7520   21.9922 C   0  0  0  0  0  0  0  0  0  0  0  0
   11.0268   15.4833   23.2786 C   0  0  0  0  0  0  0  0  0  0  0  0
   11.7477   14.6245   24.1770 O   0  0  0  0  0  0  0  0  0  0  0  0
   11.5744   14.9574   20.7542 C   0  0  0  0  0  0  0  0  0  0  0  0
   12.8790   15.5711   21.1515 C   0  0  0  0  0  0  0  0  0  0  0  0
   11.7588   14.2480   19.4563 C   0  0  0  0  0  0  0  0  0  0  0  0
   10.1582   15.5750   20.8676 C   0  0  0  0  0  0  0  0  0  0  0  0
    9.9823   17.0577   20.8531 C   0  0  0  0  0  0  0  0  0  0  0  0
    8.9680   14.9461   20.2296 C   0  0  0  0  0  0  0  0  0  0  0  0
    7.7430   11.6573   24.7206 C   0  0  0  0  0  0  0  0  0  0  0  0
    6.8545   12.2788   25.6200 C   0  0  0  0  0  0  0  0  0  0  0  0
    6.0743   11.4809   26.4396 C   0  0  0  0  0  0  0  0  0  0  0  0
    5.2465   12.0579   27.3183 F   0  0  0  0  0  0  0  0  0  0  0  0
    6.1472   10.1021   26.3669 C   0  0  0  0  0  0  0  0  0  0  0  0
    7.0492    9.4930   25.4891 C   0  0  0  0  0  0  0  0  0  0  0  0
    7.8653   10.2811   24.6877 C   0  0  0  0  0  0  0  0  0  0  0  0
  1  2  1  0
  2  3  1  0
  3  4  2  0
  4  5  1  0
  5  6  2  0
  5  7  1  0
  7  8  1  0
  8  9  1  0
  9 10  1  0
  8 11  1  0
 11 12  1  0
 11 13  1  0
 11 14  1  0
 14 15  1  0
 14 16  1  0
  4 17  1  0
 17 18  2  0
 18 19  1  0
 19 20  1  0
 19 21  2  0
 21 22  1  0
 22 23  2  0
 23  2  1  0
 14  8  1  0
 23 17  1  0
M  END
>  <alias>  (264) 
None

>  <rmsd(smina/fragmenstein)>  (264) 
0.174

>  <smiles>  (264) 
Cn1nc(C(=O)NC2(CO)C(C)(C)C2(C)C)c2cc(F)ccc21

>  <gnina_score>  (264) 
5.834

>  <inspiration_score>  (264) 
None

>  <energy_score>  (264) 
-24.499923

>  <distance_score>  (264) 
0.654694

>  <gnina_score_min>  (264) 
5.828

>  <inchikey>  (264) 
NWDKDUXDSIXUEW-UHFFFAOYSA-N

>  <exports>  (264) 
['/opt/xchem-fragalysis-2/maxwin/BulkDock/OUTPUTS/openbind_a71ev2a_c2_elabs_1LOUU54.sdf', '/opt/xchem-fragalysis-2/maxwin/BulkDock/OUTPUTS/openbind_a71ev2a_c2_elabs_1LSYIDY.sdf']

>  <name>  (264) 
P570439

>  <ref_pdb>  (264) 
A2339a

>  <subsites>  (264) 
None

>  <HIPPO Pose ID>  (264) 
570439

>  <ref_mols>  (264) 
A2339a

>  <HIPPO Compound ID>  (264) 
411378

>  <tags>  (264) 
openbind_a71ev2a_c2_elabs,syndirella_product,openbind_a71ev2a_c2_elabs_scored,BulkDock Fragalysis export,openbind_a71ev2a_c2_elabs_scored_top80percent,openbind_a71ev2a_c2_elabs_scored_top80percent_despaghettified,syndirella_placed

>  <smina_score_min>  (264) 
-5.36

$$$$
P570440
     RDKit          3D

 23 26  0  0  0  0  0  0  0  0999 V2000
    9.2163    9.0657   23.5287 C   0  0  0  0  0  0  0  0  0  0  0  0
    8.5551   10.3071   23.8713 N   0  0  0  0  0  0  0  0  0  0  0  0
    8.8995   11.4246   23.2061 N   0  0  0  0  0  0  0  0  0  0  0  0
    8.1714   12.4031   23.7918 C   0  0  0  0  0  0  0  0  0  0  0  0
    8.4657   13.8023   23.5045 C   0  0  0  0  0  0  0  0  0  0  0  0
    8.0237   14.6895   24.1138 O   0  0  0  0  0  0  0  0  0  0  0  0
    9.4948   13.7909   22.3733 N   0  0  0  0  0  0  0  0  0  0  0  0
   10.2552   14.8296   21.8252 C   0  0  0  0  0  0  0  0  0  0  0  0
   11.4291   14.7159   22.7604 C   0  0  0  0  0  0  0  0  0  0  0  0
   11.2434   14.8970   24.1303 C   0  0  0  0  0  0  0  0  0  0  0  0
   11.8449   14.1817   25.1021 N   0  0  0  0  0  0  0  0  0  0  0  0
   12.7053   13.2550   24.6690 C   0  0  0  0  0  0  0  0  0  0  0  0
   13.0201   13.0202   23.4065 N   0  0  0  0  0  0  0  0  0  0  0  0
   12.3877   13.7687   22.4799 C   0  0  0  0  0  0  0  0  0  0  0  0
   10.4689   15.0577   20.3619 C   0  0  0  0  0  0  0  0  0  0  0  0
    9.7451   16.0718   21.1954 C   0  0  0  0  0  0  0  0  0  0  0  0
    7.3922   11.9094   24.8495 C   0  0  0  0  0  0  0  0  0  0  0  0
    6.5567   12.4861   25.8174 C   0  0  0  0  0  0  0  0  0  0  0  0
    5.8783   11.6404   26.6804 C   0  0  0  0  0  0  0  0  0  0  0  0
    5.0871   12.1733   27.6167 F   0  0  0  0  0  0  0  0  0  0  0  0
    6.0003   10.2623   26.5926 C   0  0  0  0  0  0  0  0  0  0  0  0
    6.8654    9.6895   25.6583 C   0  0  0  0  0  0  0  0  0  0  0  0
    7.5902   10.5331   24.8224 C   0  0  0  0  0  0  0  0  0  0  0  0
  1  2  1  0
  2  3  1  0
  3  4  2  0
  4  5  1  0
  5  6  2  0
  5  7  1  0
  7  8  1  0
  8  9  1  0
  9 10  2  0
 10 11  1  0
 11 12  2  0
 12 13  1  0
 13 14  2  0
  8 15  1  0
 15 16  1  0
  4 17  1  0
 17 18  2  0
 18 19  1  0
 19 20  1  0
 19 21  2  0
 21 22  1  0
 22 23  2  0
 23  2  1  0
 16  8  1  0
 23 17  1  0
 14  9  1  0
M  END
>  <alias>  (265) 
None

>  <rmsd(smina/fragmenstein)>  (265) 
0.758

>  <smiles>  (265) 
Cn1nc(C(=O)NC2(c3cncnc3)CC2)c2cc(F)ccc21

>  <gnina_score>  (265) 
6.158

>  <inspiration_score>  (265) 
None

>  <energy_score>  (265) 
-11.510288

>  <distance_score>  (265) 
1.039034

>  <gnina_score_min>  (265) 
5.807

>  <inchikey>  (265) 
NDLWGZCUIDDYND-UHFFFAOYSA-N

>  <exports>  (265) 
['/opt/xchem-fragalysis-2/maxwin/BulkDock/OUTPUTS/openbind_a71ev2a_c2_elabs_1LOUU54.sdf', '/opt/xchem-fragalysis-2/maxwin/BulkDock/OUTPUTS/openbind_a71ev2a_c2_elabs_1LSYIDY.sdf']

>  <name>  (265) 
P570440

>  <ref_pdb>  (265) 
A2339a

>  <subsites>  (265) 
None

>  <HIPPO Pose ID>  (265) 
570440

>  <ref_mols>  (265) 
A2339a

>  <HIPPO Compound ID>  (265) 
411382

>  <tags>  (265) 
openbind_a71ev2a_c2_elabs,syndirella_product,openbind_a71ev2a_c2_elabs_scored,BulkDock Fragalysis export,openbind_a71ev2a_c2_elabs_scored_top80percent,openbind_a71ev2a_c2_elabs_scored_top80percent_despaghettified,syndirella_placed

>  <smina_score_min>  (265) 
-6.554

$$$$
P570441
     RDKit          3D

 23 26  0  0  0  0  0  0  0  0999 V2000
    8.8675    8.5597   23.6240 C   0  0  0  0  0  0  0  0  0  0  0  0
    8.4864    9.8448   24.1474 N   0  0  0  0  0  0  0  0  0  0  0  0
    9.1985   10.8999   23.7312 N   0  0  0  0  0  0  0  0  0  0  0  0
    8.8008   11.8672   24.5621 C   0  0  0  0  0  0  0  0  0  0  0  0
    9.2865   13.1991   24.4791 C   0  0  0  0  0  0  0  0  0  0  0  0
    9.3564   13.9174   25.3892 O   0  0  0  0  0  0  0  0  0  0  0  0
    9.5599   13.4448   23.0069 N   0  0  0  0  0  0  0  0  0  0  0  0
    9.8764   14.6059   22.3362 C   0  0  0  0  0  0  0  0  0  0  0  0
   10.4161   14.5121   20.9688 C   0  0  0  0  0  0  0  0  0  0  0  0
   11.8893   14.1750   21.1092 C   0  0  0  0  0  0  0  0  0  0  0  0
   12.6268   14.1772   19.8152 C   0  0  0  0  0  0  0  0  0  0  0  0
   11.7146   14.4272   18.3133 S   0  0  0  0  0  0  0  0  0  0  0  0
   10.5989   15.7143   18.7620 C   0  0  0  0  0  0  0  0  0  0  0  0
   10.2182   15.8025   20.1926 C   0  0  0  0  0  0  0  0  0  0  0  0
   10.4482   15.6926   23.1564 C   0  0  0  0  0  0  0  0  0  0  0  0
    8.9888   15.7337   22.7088 C   0  0  0  0  0  0  0  0  0  0  0  0
    7.7002   11.5256   25.3378 C   0  0  0  0  0  0  0  0  0  0  0  0
    6.8565   12.2383   26.2060 C   0  0  0  0  0  0  0  0  0  0  0  0
    5.8574   11.5452   26.8550 C   0  0  0  0  0  0  0  0  0  0  0  0
    5.0710   12.1952   27.7174 F   0  0  0  0  0  0  0  0  0  0  0  0
    5.6779   10.1948   26.6361 C   0  0  0  0  0  0  0  0  0  0  0  0
    6.4821    9.5137   25.7165 C   0  0  0  0  0  0  0  0  0  0  0  0
    7.5122   10.1829   25.0670 C   0  0  0  0  0  0  0  0  0  0  0  0
  1  2  1  0
  2  3  1  0
  3  4  2  0
  4  5  1  0
  5  6  2  0
  5  7  1  0
  7  8  1  0
  8  9  1  0
  9 10  1  0
 10 11  1  0
 11 12  1  0
 12 13  1  0
 13 14  1  0
  8 15  1  0
 15 16  1  0
  4 17  1  0
 17 18  2  0
 18 19  1  0
 19 20  1  0
 19 21  2  0
 21 22  1  0
 22 23  2  0
 23  2  1  0
 16  8  1  0
 23 17  1  0
 14  9  1  0
M  END
>  <alias>  (266) 
None

>  <rmsd(smina/fragmenstein)>  (266) 
1.486

>  <smiles>  (266) 
Cn1nc(C(=O)NC2(C3CCSCC3)CC2)c2cc(F)ccc21

>  <gnina_score>  (266) 
5.864

>  <inspiration_score>  (266) 
None

>  <energy_score>  (266) 
-25.733803

>  <distance_score>  (266) 
1.439411

>  <gnina_score_min>  (266) 
5.559

>  <inchikey>  (266) 
GCSCOVKXAIIEOK-UHFFFAOYSA-N

>  <exports>  (266) 
['/opt/xchem-fragalysis-2/maxwin/BulkDock/OUTPUTS/openbind_a71ev2a_c2_elabs_1LOUU54.sdf', '/opt/xchem-fragalysis-2/maxwin/BulkDock/OUTPUTS/openbind_a71ev2a_c2_elabs_1LSYIDY.sdf']

>  <name>  (266) 
P570441

>  <ref_pdb>  (266) 
A2339a

>  <subsites>  (266) 
None

>  <HIPPO Pose ID>  (266) 
570441

>  <ref_mols>  (266) 
A2339a

>  <HIPPO Compound ID>  (266) 
411383

>  <tags>  (266) 
openbind_a71ev2a_c2_elabs,syndirella_product,openbind_a71ev2a_c2_elabs_scored,BulkDock Fragalysis export,openbind_a71ev2a_c2_elabs_scored_top80percent,openbind_a71ev2a_c2_elabs_scored_top80percent_despaghettified,syndirella_placed

>  <smina_score_min>  (266) 
-5.686

$$$$
P570442
     RDKit          3D

 23 26  0  0  0  0  0  0  0  0999 V2000
    9.3126    8.9270   23.4385 C   0  0  0  0  0  0  0  0  0  0  0  0
    8.7160   10.1998   23.7799 N   0  0  0  0  0  0  0  0  0  0  0  0
    9.1572   11.3006   23.1468 N   0  0  0  0  0  0  0  0  0  0  0  0
    8.4415   12.3079   23.6854 C   0  0  0  0  0  0  0  0  0  0  0  0
    8.7589   13.6929   23.3631 C   0  0  0  0  0  0  0  0  0  0  0  0
    8.2879   14.5875   23.9394 O   0  0  0  0  0  0  0  0  0  0  0  0
    9.8329   13.6693   22.2733 N   0  0  0  0  0  0  0  0  0  0  0  0
   10.6052   14.6998   21.7405 C   0  0  0  0  0  0  0  0  0  0  0  0
   11.7182   14.8035   22.8550 C   0  0  0  0  0  0  0  0  0  0  0  0
   11.3097   15.0826   24.1202 N   0  0  0  0  0  0  0  0  0  0  0  0
   11.9429   14.0946   24.8833 O   0  0  0  0  0  0  0  0  0  0  0  0
   12.7532   13.4405   24.0226 C   0  0  0  0  0  0  0  0  0  0  0  0
   13.5490   12.5136   24.5112 O   0  0  0  0  0  0  0  0  0  0  0  0
   12.7138   13.8597   22.7969 N   0  0  0  0  0  0  0  0  0  0  0  0
   10.0937   15.8699   20.9805 C   0  0  0  0  0  0  0  0  0  0  0  0
   10.9985   14.8719   20.3105 C   0  0  0  0  0  0  0  0  0  0  0  0
    7.6005   11.8580   24.7204 C   0  0  0  0  0  0  0  0  0  0  0  0
    6.7479   12.4748   25.6517 C   0  0  0  0  0  0  0  0  0  0  0  0
    6.0180   11.6665   26.5114 C   0  0  0  0  0  0  0  0  0  0  0  0
    5.2182   12.2375   27.4188 F   0  0  0  0  0  0  0  0  0  0  0  0
    6.1044   10.2845   26.4534 C   0  0  0  0  0  0  0  0  0  0  0  0
    6.9769    9.6707   25.5521 C   0  0  0  0  0  0  0  0  0  0  0  0
    7.7476   10.4754   24.7164 C   0  0  0  0  0  0  0  0  0  0  0  0
  1  2  1  0
  2  3  1  0
  3  4  2  0
  4  5  1  0
  5  6  2  0
  5  7  1  0
  7  8  1  0
  8  9  1  0
  9 10  2  0
 10 11  1  0
 11 12  1  0
 12 13  1  0
 12 14  2  0
  8 15  1  0
 15 16  1  0
  4 17  1  0
 17 18  2  0
 18 19  1  0
 19 20  1  0
 19 21  2  0
 21 22  1  0
 22 23  2  0
 23  2  1  0
 16  8  1  0
 23 17  1  0
 14  9  1  0
M  END
>  <alias>  (267) 
None

>  <rmsd(smina/fragmenstein)>  (267) 
0.749

>  <smiles>  (267) 
Cn1nc(C(=O)NC2(c3noc(O)n3)CC2)c2cc(F)ccc21

>  <gnina_score>  (267) 
5.648

>  <inspiration_score>  (267) 
None

>  <energy_score>  (267) 
-31.960388

>  <distance_score>  (267) 
0.758888

>  <gnina_score_min>  (267) 
5.409

>  <inchikey>  (267) 
IGQFZVBIRHOZFB-UHFFFAOYSA-N

>  <exports>  (267) 
['/opt/xchem-fragalysis-2/maxwin/BulkDock/OUTPUTS/openbind_a71ev2a_c2_elabs_1LOUU54.sdf', '/opt/xchem-fragalysis-2/maxwin/BulkDock/OUTPUTS/openbind_a71ev2a_c2_elabs_1LSYIDY.sdf']

>  <name>  (267) 
P570442

>  <ref_pdb>  (267) 
A2339a

>  <subsites>  (267) 
None

>  <HIPPO Pose ID>  (267) 
570442

>  <ref_mols>  (267) 
A2339a

>  <HIPPO Compound ID>  (267) 
411388

>  <tags>  (267) 
openbind_a71ev2a_c2_elabs,syndirella_product,openbind_a71ev2a_c2_elabs_scored,BulkDock Fragalysis export,openbind_a71ev2a_c2_elabs_scored_top80percent,openbind_a71ev2a_c2_elabs_scored_top80percent_despaghettified,syndirella_placed

>  <smina_score_min>  (267) 
-7.312

$$$$
P570443
     RDKit          3D

 23 25  0  0  0  0  0  0  0  0999 V2000
    9.5080    8.6477   23.3388 C   0  0  0  0  0  0  0  0  0  0  0  0
    9.0138    9.9688   23.6400 N   0  0  0  0  0  0  0  0  0  0  0  0
    9.5458   11.0101   22.9743 N   0  0  0  0  0  0  0  0  0  0  0  0
    8.8093   12.0549   23.3773 C   0  0  0  0  0  0  0  0  0  0  0  0
    8.9750   13.3893   22.8186 C   0  0  0  0  0  0  0  0  0  0  0  0
    8.1696   14.2059   23.0138 O   0  0  0  0  0  0  0  0  0  0  0  0
   10.3307   13.4800   22.1084 N   0  0  0  0  0  0  0  0  0  0  0  0
   11.0129   14.5899   21.5820 C   0  0  0  0  0  0  0  0  0  0  0  0
   11.1195   15.6259   22.6649 C   0  0  0  0  0  0  0  0  0  0  0  0
   11.6347   15.0016   23.8391 O   0  0  0  0  0  0  0  0  0  0  0  0
   10.7694   14.8793   24.9387 C   0  0  0  0  0  0  0  0  0  0  0  0
   11.3627   15.4619   26.0081 F   0  0  0  0  0  0  0  0  0  0  0  0
   10.5911   13.5773   25.2298 F   0  0  0  0  0  0  0  0  0  0  0  0
    9.5747   15.4653   24.7787 F   0  0  0  0  0  0  0  0  0  0  0  0
   12.1305   14.5140   20.5845 C   0  0  0  0  0  0  0  0  0  0  0  0
   10.7951   15.0601   20.1731 C   0  0  0  0  0  0  0  0  0  0  0  0
    7.9441   11.7178   24.4468 C   0  0  0  0  0  0  0  0  0  0  0  0
    7.0730   12.4221   25.3024 C   0  0  0  0  0  0  0  0  0  0  0  0
    6.2904   11.6994   26.1964 C   0  0  0  0  0  0  0  0  0  0  0  0
    5.4826   12.3510   27.0429 F   0  0  0  0  0  0  0  0  0  0  0  0
    6.3279   10.3151   26.2276 C   0  0  0  0  0  0  0  0  0  0  0  0
    7.2049    9.6172   25.3939 C   0  0  0  0  0  0  0  0  0  0  0  0
    8.0381   10.3368   24.5380 C   0  0  0  0  0  0  0  0  0  0  0  0
  1  2  1  0
  2  3  1  0
  3  4  2  0
  4  5  1  0
  5  6  2  0
  5  7  1  0
  7  8  1  0
  8  9  1  0
  9 10  1  0
 10 11  1  0
 11 12  1  0
 11 13  1  0
 11 14  1  0
  8 15  1  0
 15 16  1  0
  4 17  1  0
 17 18  2  0
 18 19  1  0
 19 20  1  0
 19 21  2  0
 21 22  1  0
 22 23  2  0
 23  2  1  0
 16  8  1  0
 23 17  1  0
M  END
>  <alias>  (268) 
None

>  <rmsd(smina/fragmenstein)>  (268) 
0.839

>  <smiles>  (268) 
Cn1nc(C(=O)NC2(COC(F)(F)F)CC2)c2cc(F)ccc21

>  <gnina_score>  (268) 
5.869

>  <inspiration_score>  (268) 
None

>  <energy_score>  (268) 
-10.806852

>  <distance_score>  (268) 
0.575108

>  <gnina_score_min>  (268) 
5.771

>  <inchikey>  (268) 
SKTRRGZGUBDOJL-UHFFFAOYSA-N

>  <exports>  (268) 
['/opt/xchem-fragalysis-2/maxwin/BulkDock/OUTPUTS/openbind_a71ev2a_c2_elabs_1LOUU54.sdf', '/opt/xchem-fragalysis-2/maxwin/BulkDock/OUTPUTS/openbind_a71ev2a_c2_elabs_1LSYIDY.sdf']

>  <name>  (268) 
P570443

>  <ref_pdb>  (268) 
A2339a

>  <subsites>  (268) 
None

>  <HIPPO Pose ID>  (268) 
570443

>  <ref_mols>  (268) 
A2339a

>  <HIPPO Compound ID>  (268) 
411394

>  <tags>  (268) 
openbind_a71ev2a_c2_elabs,syndirella_product,openbind_a71ev2a_c2_elabs_scored,BulkDock Fragalysis export,openbind_a71ev2a_c2_elabs_scored_top80percent,openbind_a71ev2a_c2_elabs_scored_top80percent_despaghettified,syndirella_placed

>  <smina_score_min>  (268) 
-5.894

$$$$
P570444
     RDKit          3D

 23 26  0  0  0  0  0  0  0  0999 V2000
    9.5113    8.8243   23.1342 C   0  0  0  0  0  0  0  0  0  0  0  0
    9.1920   10.1256   23.6731 N   0  0  0  0  0  0  0  0  0  0  0  0
    9.9044   11.1854   23.2452 N   0  0  0  0  0  0  0  0  0  0  0  0
    9.4178   12.2166   23.9527 C   0  0  0  0  0  0  0  0  0  0  0  0
    9.8224   13.5969   23.7105 C   0  0  0  0  0  0  0  0  0  0  0  0
    9.7992   14.4036   24.5528 O   0  0  0  0  0  0  0  0  0  0  0  0
   10.1408   13.7284   22.2132 N   0  0  0  0  0  0  0  0  0  0  0  0
   10.3992   14.8670   21.4313 C   0  0  0  0  0  0  0  0  0  0  0  0
    9.0991   15.6180   21.0785 C   0  0  0  0  0  0  0  0  0  0  0  0
    7.8538   15.2498   21.8655 C   0  0  0  0  0  0  0  0  0  0  0  0
    7.3848   16.0353   22.8869 N   0  0  0  0  0  0  0  0  0  0  0  0
    6.3198   15.4062   23.3116 C   0  0  0  0  0  0  0  0  0  0  0  0
    6.1666   14.2570   22.6105 N   0  0  0  0  0  0  0  0  0  0  0  0
    7.1383   14.1167   21.6813 N   0  0  0  0  0  0  0  0  0  0  0  0
   11.4615   14.8460   20.3525 C   0  0  0  0  0  0  0  0  0  0  0  0
   11.6980   15.6114   21.6092 C   0  0  0  0  0  0  0  0  0  0  0  0
    8.3222   11.8283   24.7672 C   0  0  0  0  0  0  0  0  0  0  0  0
    7.3996   12.4952   25.5982 C   0  0  0  0  0  0  0  0  0  0  0  0
    6.4269   11.7448   26.2525 C   0  0  0  0  0  0  0  0  0  0  0  0
    5.5683   12.3605   27.0758 F   0  0  0  0  0  0  0  0  0  0  0  0
    6.3491   10.3696   26.0949 C   0  0  0  0  0  0  0  0  0  0  0  0
    7.2467    9.7057   25.2551 C   0  0  0  0  0  0  0  0  0  0  0  0
    8.2136   10.4560   24.5821 C   0  0  0  0  0  0  0  0  0  0  0  0
  1  2  1  0
  2  3  1  0
  3  4  2  0
  4  5  1  0
  5  6  2  0
  5  7  1  0
  7  8  1  0
  8  9  1  0
  9 10  1  0
 10 11  1  0
 11 12  2  0
 12 13  1  0
 13 14  1  0
  8 15  1  0
 15 16  1  0
  4 17  1  0
 17 18  2  0
 18 19  1  0
 19 20  1  0
 19 21  2  0
 21 22  1  0
 22 23  2  0
 23  2  1  0
 16  8  1  0
 23 17  1  0
 14 10  2  0
M  END
>  <alias>  (269) 
None

>  <rmsd(smina/fragmenstein)>  (269) 
0.34

>  <smiles>  (269) 
Cn1nc(C(=O)NC2(Cc3nc[nH]n3)CC2)c2cc(F)ccc21

>  <gnina_score>  (269) 
6.299

>  <inspiration_score>  (269) 
None

>  <energy_score>  (269) 
-25.2127

>  <distance_score>  (269) 
0.487975

>  <gnina_score_min>  (269) 
6.267

>  <inchikey>  (269) 
UJSJBILIDQPKQS-UHFFFAOYSA-N

>  <exports>  (269) 
['/opt/xchem-fragalysis-2/maxwin/BulkDock/OUTPUTS/openbind_a71ev2a_c2_elabs_1LOUU54.sdf', '/opt/xchem-fragalysis-2/maxwin/BulkDock/OUTPUTS/openbind_a71ev2a_c2_elabs_1LSYIDY.sdf']

>  <name>  (269) 
P570444

>  <ref_pdb>  (269) 
A2339a

>  <subsites>  (269) 
None

>  <HIPPO Pose ID>  (269) 
570444

>  <ref_mols>  (269) 
A2339a

>  <HIPPO Compound ID>  (269) 
411395

>  <tags>  (269) 
openbind_a71ev2a_c2_elabs,syndirella_product,openbind_a71ev2a_c2_elabs_scored,BulkDock Fragalysis export,openbind_a71ev2a_c2_elabs_scored_top80percent,openbind_a71ev2a_c2_elabs_scored_6plus,openbind_a71ev2a_c2_elabs_scored_top80percent_despaghettified,syndirella_placed

>  <smina_score_min>  (269) 
-7.614

$$$$
P570445
     RDKit          3D

 23 26  0  0  0  0  0  0  0  0999 V2000
    9.0833    8.9297   23.6338 C   0  0  0  0  0  0  0  0  0  0  0  0
    8.4670   10.1535   24.0969 N   0  0  0  0  0  0  0  0  0  0  0  0
    8.9039   11.3223   23.5932 N   0  0  0  0  0  0  0  0  0  0  0  0
    8.1752   12.2372   24.2624 C   0  0  0  0  0  0  0  0  0  0  0  0
    8.3533   13.6498   24.0838 C   0  0  0  0  0  0  0  0  0  0  0  0
    7.8170   14.4423   24.7378 O   0  0  0  0  0  0  0  0  0  0  0  0
    9.3987   13.8130   23.0042 N   0  0  0  0  0  0  0  0  0  0  0  0
   10.0626   14.9307   22.5677 C   0  0  2  0  0  0  0  0  0  0  0  0
   10.9056   15.3853   23.7106 C   0  0  0  0  0  0  0  0  0  0  0  0
    9.2149   15.7963   21.6295 C   0  0  0  0  0  0  0  0  0  0  0  0
   10.5380   15.2699   21.2081 C   0  0  0  0  0  0  0  0  0  0  0  0
   11.5726   16.2842   21.0141 C   0  0  0  0  0  0  0  0  0  0  0  0
   12.9469   15.6902   21.1537 C   0  0  0  0  0  0  0  0  0  0  0  0
   13.0726   14.8123   20.0629 O   0  0  0  0  0  0  0  0  0  0  0  0
   12.1470   13.7678   20.2108 C   0  0  0  0  0  0  0  0  0  0  0  0
   10.6889   14.2542   20.1487 C   0  0  0  0  0  0  0  0  0  0  0  0
    7.3153   11.6880   25.2012 C   0  0  0  0  0  0  0  0  0  0  0  0
    6.4237   12.2182   26.1446 C   0  0  0  0  0  0  0  0  0  0  0  0
    5.6770   11.3384   26.8972 C   0  0  0  0  0  0  0  0  0  0  0  0
    4.8453   11.8298   27.8189 F   0  0  0  0  0  0  0  0  0  0  0  0
    5.7809    9.9743   26.7071 C   0  0  0  0  0  0  0  0  0  0  0  0
    6.6754    9.4649   25.7616 C   0  0  0  0  0  0  0  0  0  0  0  0
    7.4734   10.3276   25.0336 C   0  0  0  0  0  0  0  0  0  0  0  0
  1  2  1  0
  2  3  1  0
  3  4  2  0
  4  5  1  0
  5  6  2  0
  5  7  1  0
  8  7  1  0
  8  9  1  1
  8 10  1  0
 10 11  1  0
 11 12  1  0
 12 13  1  0
 13 14  1  0
 14 15  1  0
 15 16  1  0
  4 17  1  0
 17 18  2  0
 18 19  1  0
 19 20  1  0
 19 21  2  0
 21 22  1  0
 22 23  2  0
 23  2  1  0
 11  8  1  0
 23 17  1  0
 16 11  1  0
M  END
>  <alias>  (270) 
None

>  <rmsd(smina/fragmenstein)>  (270) 
0.589

>  <smiles>  (270) 
Cn1nc(C(=O)N[C@]2(C)CC23CCOCC3)c2cc(F)ccc21

>  <gnina_score>  (270) 
5.796

>  <inspiration_score>  (270) 
None

>  <energy_score>  (270) 
-26.596439

>  <distance_score>  (270) 
1.304692

>  <gnina_score_min>  (270) 
5.634

>  <inchikey>  (270) 
QBXBMCNGSIVFDD-MRXNPFEDSA-N

>  <exports>  (270) 
['/opt/xchem-fragalysis-2/maxwin/BulkDock/OUTPUTS/openbind_a71ev2a_c2_elabs_1LOUU54.sdf', '/opt/xchem-fragalysis-2/maxwin/BulkDock/OUTPUTS/openbind_a71ev2a_c2_elabs_1LSYIDY.sdf']

>  <name>  (270) 
P570445

>  <ref_pdb>  (270) 
A2339a

>  <subsites>  (270) 
None

>  <HIPPO Pose ID>  (270) 
570445

>  <ref_mols>  (270) 
A2339a

>  <HIPPO Compound ID>  (270) 
411401

>  <tags>  (270) 
openbind_a71ev2a_c2_elabs,syndirella_product,openbind_a71ev2a_c2_elabs_scored,BulkDock Fragalysis export,openbind_a71ev2a_c2_elabs_scored_top80percent,openbind_a71ev2a_c2_elabs_scored_top80percent_despaghettified,syndirella_placed

>  <smina_score_min>  (270) 
-4.504

$$$$
P570449
     RDKit          3D

 23 26  0  0  0  0  0  0  0  0999 V2000
    9.5633    8.7696   23.1658 C   0  0  0  0  0  0  0  0  0  0  0  0
    9.2030   10.1116   23.5587 N   0  0  0  0  0  0  0  0  0  0  0  0
    9.8685   11.1368   22.9998 N   0  0  0  0  0  0  0  0  0  0  0  0
    9.3798   12.2289   23.6067 C   0  0  0  0  0  0  0  0  0  0  0  0
    9.8964   13.5662   23.2870 C   0  0  0  0  0  0  0  0  0  0  0  0
    9.6301   14.4769   23.9670 O   0  0  0  0  0  0  0  0  0  0  0  0
   10.6743   13.5059   21.9538 N   0  0  0  0  0  0  0  0  0  0  0  0
   11.3621   14.5305   21.2338 C   0  0  1  0  0  0  0  0  0  0  0  0
   12.3934   15.2490   22.0191 C   0  0  0  0  0  0  0  0  0  0  0  0
   13.3525   15.8095   21.2604 F   0  0  0  0  0  0  0  0  0  0  0  0
   11.7852   16.2383   22.7102 F   0  0  0  0  0  0  0  0  0  0  0  0
   12.9708   14.4226   22.9250 F   0  0  0  0  0  0  0  0  0  0  0  0
   11.4118   14.6114   19.6888 C   0  0  0  0  0  0  0  0  0  0  0  0
   10.4741   15.3985   20.4595 C   0  0  0  0  0  0  0  0  0  0  0  0
    9.8407   16.6994   20.3895 C   0  0  0  0  0  0  0  0  0  0  0  0
    9.0125   15.4333   20.5386 C   0  0  0  0  0  0  0  0  0  0  0  0
    8.3323   11.8970   24.5114 C   0  0  0  0  0  0  0  0  0  0  0  0
    7.4547   12.6109   25.3527 C   0  0  0  0  0  0  0  0  0  0  0  0
    6.5331   11.8976   26.1190 C   0  0  0  0  0  0  0  0  0  0  0  0
    5.7215   12.5565   26.9569 F   0  0  0  0  0  0  0  0  0  0  0  0
    6.4555   10.5139   26.0600 C   0  0  0  0  0  0  0  0  0  0  0  0
    7.3153    9.7958   25.2278 C   0  0  0  0  0  0  0  0  0  0  0  0
    8.2435   10.5078   24.4595 C   0  0  0  0  0  0  0  0  0  0  0  0
  1  2  1  0
  2  3  1  0
  3  4  2  0
  4  5  1  0
  5  6  2  0
  5  7  1  0
  8  7  1  6
  8  9  1  0
  9 10  1  0
  9 11  1  0
  9 12  1  0
  8 13  1  0
 13 14  1  0
 14 15  1  0
 15 16  1  0
  4 17  1  0
 17 18  2  0
 18 19  1  0
 19 20  1  0
 19 21  2  0
 21 22  1  0
 22 23  2  0
 23  2  1  0
 14  8  1  0
 23 17  1  0
 16 14  1  0
M  END
>  <alias>  (271) 
None

>  <rmsd(smina/fragmenstein)>  (271) 
0.757

>  <smiles>  (271) 
Cn1nc(C(=O)N[C@@]2(C(F)(F)F)CC23CC3)c2cc(F)ccc21

>  <gnina_score>  (271) 
6.116

>  <inspiration_score>  (271) 
None

>  <energy_score>  (271) 
-5.690993

>  <distance_score>  (271) 
0.382813

>  <gnina_score_min>  (271) 
6.084

>  <inchikey>  (271) 
GVLJUXGAKGHRQP-AWEZNQCLSA-N

>  <exports>  (271) 
['/opt/xchem-fragalysis-2/maxwin/BulkDock/OUTPUTS/openbind_a71ev2a_c2_elabs_1LOUU54.sdf', '/opt/xchem-fragalysis-2/maxwin/BulkDock/OUTPUTS/openbind_a71ev2a_c2_elabs_1LSYIDY.sdf']

>  <name>  (271) 
P570449

>  <ref_pdb>  (271) 
A2339a

>  <subsites>  (271) 
None

>  <HIPPO Pose ID>  (271) 
570449

>  <ref_mols>  (271) 
A2339a

>  <HIPPO Compound ID>  (271) 
411403

>  <tags>  (271) 
openbind_a71ev2a_c2_elabs,syndirella_product,openbind_a71ev2a_c2_elabs_scored,BulkDock Fragalysis export,openbind_a71ev2a_c2_elabs_scored_top80percent,openbind_a71ev2a_c2_elabs_scored_6plus,openbind_a71ev2a_c2_elabs_scored_top80percent_despaghettified,syndirella_placed

>  <smina_score_min>  (271) 
-8.051

$$$$
P570450
     RDKit          3D

 23 26  0  0  0  0  0  0  0  0999 V2000
    4.3680   15.5977   23.0291 C   0  0  0  0  0  0  0  0  0  0  0  0
    5.6564   15.2965   22.3619 C   0  0  0  0  0  0  0  0  0  0  0  0
    5.8316   14.3828   21.4331 N   0  0  0  0  0  0  0  0  0  0  0  0
    7.1454   14.3191   21.0280 N   0  0  0  0  0  0  0  0  0  0  0  0
    7.9148   15.2284   21.5963 C   0  0  0  0  0  0  0  0  0  0  0  0
    9.4902   14.9511   21.5961 C   0  0  0  0  0  0  0  0  0  0  0  0
    9.5631   13.8205   22.4012 N   0  0  0  0  0  0  0  0  0  0  0  0
    9.5680   13.6837   23.9158 C   0  0  0  0  0  0  0  0  0  0  0  0
    9.5904   14.4965   24.7471 O   0  0  0  0  0  0  0  0  0  0  0  0
    9.4314   12.2601   24.1714 C   0  0  0  0  0  0  0  0  0  0  0  0
    9.9584   11.3036   23.3892 N   0  0  0  0  0  0  0  0  0  0  0  0
    9.2744   10.1862   23.7290 N   0  0  0  0  0  0  0  0  0  0  0  0
    9.6285    8.9316   23.1032 C   0  0  0  0  0  0  0  0  0  0  0  0
    8.2653   10.4221   24.6346 C   0  0  0  0  0  0  0  0  0  0  0  0
    7.3046    9.6018   25.2251 C   0  0  0  0  0  0  0  0  0  0  0  0
    6.3507   10.1812   26.0673 C   0  0  0  0  0  0  0  0  0  0  0  0
    6.3602   11.5486   26.2952 C   0  0  0  0  0  0  0  0  0  0  0  0
    5.4490   12.0903   27.1136 F   0  0  0  0  0  0  0  0  0  0  0  0
    7.3257   12.3673   25.7223 C   0  0  0  0  0  0  0  0  0  0  0  0
    8.3220   11.7768   24.9181 C   0  0  0  0  0  0  0  0  0  0  0  0
   10.5401   15.9883   21.4140 C   0  0  0  0  0  0  0  0  0  0  0  0
   10.2465   15.0389   20.2966 C   0  0  0  0  0  0  0  0  0  0  0  0
    7.0894   16.1257   22.7976 S   0  0  0  0  0  0  0  0  0  0  0  0
  1  2  1  0
  2  3  2  0
  3  4  1  0
  4  5  2  0
  5  6  1  0
  6  7  1  0
  7  8  1  0
  8  9  2  0
  8 10  1  0
 10 11  2  0
 11 12  1  0
 12 13  1  0
 12 14  1  0
 14 15  2  0
 15 16  1  0
 16 17  2  0
 17 18  1  0
 17 19  1  0
 19 20  2  0
  6 21  1  0
 21 22  1  0
  5 23  1  0
 23  2  1  0
 22  6  1  0
 20 10  1  0
 20 14  1  0
M  END
>  <alias>  (272) 
None

>  <rmsd(smina/fragmenstein)>  (272) 
0.961

>  <smiles>  (272) 
Cc1nnc(C2(NC(=O)c3nn(C)c4ccc(F)cc34)CC2)s1

>  <gnina_score>  (272) 
6.198

>  <inspiration_score>  (272) 
None

>  <energy_score>  (272) 
-52.791698

>  <distance_score>  (272) 
0.78757

>  <gnina_score_min>  (272) 
6.359

>  <inchikey>  (272) 
SLHJZXBHCYDEIZ-UHFFFAOYSA-N

>  <exports>  (272) 
['/opt/xchem-fragalysis-2/maxwin/BulkDock/OUTPUTS/openbind_a71ev2a_c2_elabs_1LOUU54.sdf', '/opt/xchem-fragalysis-2/maxwin/BulkDock/OUTPUTS/openbind_a71ev2a_c2_elabs_1LSYIDY.sdf']

>  <name>  (272) 
P570450

>  <ref_pdb>  (272) 
A2339a

>  <subsites>  (272) 
None

>  <HIPPO Pose ID>  (272) 
570450

>  <ref_mols>  (272) 
A2339a

>  <HIPPO Compound ID>  (272) 
411404

>  <tags>  (272) 
openbind_a71ev2a_c2_elabs,syndirella_product,openbind_a71ev2a_c2_elabs_scored,BulkDock Fragalysis export,openbind_a71ev2a_c2_elabs_scored_top80percent,openbind_a71ev2a_c2_elabs_scored_6plus,openbind_a71ev2a_c2_elabs_scored_top80percent_despaghettified,syndirella_placed

>  <smina_score_min>  (272) 
-6.49

$$$$
P570458
     RDKit          3D

 23 26  0  0  0  0  0  0  0  0999 V2000
    8.8230    9.0762   23.8246 C   0  0  0  0  0  0  0  0  0  0  0  0
    8.2335   10.3226   24.2686 N   0  0  0  0  0  0  0  0  0  0  0  0
    8.6371   11.4572   23.6897 N   0  0  0  0  0  0  0  0  0  0  0  0
    7.9655   12.4381   24.3456 C   0  0  0  0  0  0  0  0  0  0  0  0
    8.2100   13.8230   23.9607 C   0  0  0  0  0  0  0  0  0  0  0  0
    8.0509   14.7745   24.6092 O   0  0  0  0  0  0  0  0  0  0  0  0
    8.8048   13.6644   22.5688 N   0  0  0  0  0  0  0  0  0  0  0  0
    9.4056   14.5986   21.7284 C   0  0  0  0  0  0  0  0  0  0  0  0
   10.8406   14.2024   21.7430 C   0  0  0  0  0  0  0  0  0  0  0  0
   11.7869   14.8221   20.7284 C   0  0  0  0  0  0  0  0  0  0  0  0
   12.7537   15.6679   21.4835 C   0  0  0  0  0  0  0  0  0  0  0  0
   13.4172   14.9534   22.5048 O   0  0  0  0  0  0  0  0  0  0  0  0
   12.7302   13.9316   23.1826 C   0  0  0  0  0  0  0  0  0  0  0  0
   11.3012   14.2727   23.2155 C   0  0  0  0  0  0  0  0  0  0  0  0
    8.9412   15.9986   21.4957 C   0  0  0  0  0  0  0  0  0  0  0  0
    8.7617   14.9414   20.4499 C   0  0  0  0  0  0  0  0  0  0  0  0
    7.1739   11.9296   25.3641 C   0  0  0  0  0  0  0  0  0  0  0  0
    6.3445   12.4999   26.3308 C   0  0  0  0  0  0  0  0  0  0  0  0
    5.6075   11.6404   27.1239 C   0  0  0  0  0  0  0  0  0  0  0  0
    4.8208   12.1643   28.0660 F   0  0  0  0  0  0  0  0  0  0  0  0
    5.6513   10.2649   26.9533 C   0  0  0  0  0  0  0  0  0  0  0  0
    6.4776    9.7003   25.9822 C   0  0  0  0  0  0  0  0  0  0  0  0
    7.2783   10.5468   25.2281 C   0  0  0  0  0  0  0  0  0  0  0  0
  1  2  1  0
  2  3  1  0
  3  4  2  0
  4  5  1  0
  5  6  2  0
  5  7  1  0
  7  8  1  0
  8  9  1  0
  9 10  1  0
 10 11  1  0
 11 12  1  0
 12 13  1  0
 13 14  1  0
  8 15  1  0
 15 16  1  0
  4 17  1  0
 17 18  2  0
 18 19  1  0
 19 20  1  0
 19 21  2  0
 21 22  1  0
 22 23  2  0
 23  2  1  0
 16  8  1  0
 23 17  1  0
 14  9  1  0
M  END
>  <alias>  (273) 
None

>  <rmsd(smina/fragmenstein)>  (273) 
1.025

>  <smiles>  (273) 
Cn1nc(C(=O)NC2(C3CCOCC3)CC2)c2cc(F)ccc21

>  <gnina_score>  (273) 
5.735

>  <inspiration_score>  (273) 
None

>  <energy_score>  (273) 
-10.627599

>  <distance_score>  (273) 
1.629406

>  <gnina_score_min>  (273) 
5.331

>  <inchikey>  (273) 
FHXGKHSPSWZNPG-UHFFFAOYSA-N

>  <exports>  (273) 
['/opt/xchem-fragalysis-2/maxwin/BulkDock/OUTPUTS/openbind_a71ev2a_c2_elabs_1LOUU54.sdf', '/opt/xchem-fragalysis-2/maxwin/BulkDock/OUTPUTS/openbind_a71ev2a_c2_elabs_1LSYIDY.sdf']

>  <name>  (273) 
P570458

>  <ref_pdb>  (273) 
A2339a

>  <subsites>  (273) 
None

>  <HIPPO Pose ID>  (273) 
570458

>  <ref_mols>  (273) 
A2339a

>  <HIPPO Compound ID>  (273) 
411420

>  <tags>  (273) 
openbind_a71ev2a_c2_elabs,syndirella_product,openbind_a71ev2a_c2_elabs_scored,BulkDock Fragalysis export,openbind_a71ev2a_c2_elabs_scored_top80percent,openbind_a71ev2a_c2_elabs_scored_top80percent_despaghettified,syndirella_placed

>  <smina_score_min>  (273) 
-6.109

$$$$
P570461
     RDKit          3D

 23 26  0  0  0  0  0  0  0  0999 V2000
    9.2924    9.2837   23.3601 C   0  0  0  0  0  0  0  0  0  0  0  0
    8.7491   10.4797   23.9715 N   0  0  0  0  0  0  0  0  0  0  0  0
    9.2961   11.6743   23.6684 N   0  0  0  0  0  0  0  0  0  0  0  0
    8.6449   12.5456   24.4719 C   0  0  0  0  0  0  0  0  0  0  0  0
    9.0307   13.9556   24.5685 C   0  0  0  0  0  0  0  0  0  0  0  0
    8.6543   14.6673   25.4018 O   0  0  0  0  0  0  0  0  0  0  0  0
   10.0222   14.1889   23.4549 N   0  0  0  0  0  0  0  0  0  0  0  0
   10.6984   15.3623   23.0586 C   0  0  0  0  0  0  0  0  0  0  0  0
   11.5689   14.9796   21.9638 C   0  0  0  0  0  0  0  0  0  0  0  0
   12.3898   13.8961   21.8323 C   0  0  0  0  0  0  0  0  0  0  0  0
   12.7854   13.7385   20.5410 N   0  0  0  0  0  0  0  0  0  0  0  0
   12.3110   14.7665   19.9005 C   0  0  0  0  0  0  0  0  0  0  0  0
   11.5002   15.4931   20.7101 N   0  0  0  0  0  0  0  0  0  0  0  0
   10.2467   16.0404   20.1976 C   0  0  0  0  0  0  0  0  0  0  0  0
    9.6555   15.4354   18.9752 C   0  0  0  0  0  0  0  0  0  0  0  0
    9.0332   15.1444   20.3132 C   0  0  0  0  0  0  0  0  0  0  0  0
    7.6245   11.9266   25.2026 C   0  0  0  0  0  0  0  0  0  0  0  0
    6.6654   12.3749   26.1206 C   0  0  0  0  0  0  0  0  0  0  0  0
    5.8462   11.4342   26.7184 C   0  0  0  0  0  0  0  0  0  0  0  0
    4.9523   11.8487   27.6216 F   0  0  0  0  0  0  0  0  0  0  0  0
    5.9606   10.0837   26.4265 C   0  0  0  0  0  0  0  0  0  0  0  0
    6.9118    9.6382   25.5045 C   0  0  0  0  0  0  0  0  0  0  0  0
    7.7350   10.5783   24.8934 C   0  0  0  0  0  0  0  0  0  0  0  0
  1  2  1  0
  2  3  1  0
  3  4  2  0
  4  5  1  0
  5  6  2  0
  5  7  1  0
  7  8  1  0
  8  9  1  0
  9 10  2  0
 10 11  1  0
 11 12  2  0
 12 13  1  0
 13 14  1  0
 14 15  1  0
 15 16  1  0
  4 17  1  0
 17 18  2  0
 18 19  1  0
 19 20  1  0
 19 21  2  0
 21 22  1  0
 22 23  2  0
 23  2  1  0
 13  9  1  0
 16 14  1  0
 23 17  1  0
M  END
>  <alias>  (274) 
None

>  <rmsd(smina/fragmenstein)>  (274) 
1.956

>  <smiles>  (274) 
Cn1nc(C(=O)NCc2cncn2C2CC2)c2cc(F)ccc21

>  <gnina_score>  (274) 
5.981

>  <inspiration_score>  (274) 
None

>  <energy_score>  (274) 
-12.219917

>  <distance_score>  (274) 
1.158263

>  <gnina_score_min>  (274) 
5.257

>  <inchikey>  (274) 
BCKLZVRYOHBNEF-UHFFFAOYSA-N

>  <exports>  (274) 
['/opt/xchem-fragalysis-2/maxwin/BulkDock/OUTPUTS/openbind_a71ev2a_c2_elabs_1LOUU54.sdf', '/opt/xchem-fragalysis-2/maxwin/BulkDock/OUTPUTS/openbind_a71ev2a_c2_elabs_1LSYIDY.sdf']

>  <name>  (274) 
P570461

>  <ref_pdb>  (274) 
A2339a

>  <subsites>  (274) 
None

>  <HIPPO Pose ID>  (274) 
570461

>  <ref_mols>  (274) 
A2339a

>  <HIPPO Compound ID>  (274) 
411426

>  <tags>  (274) 
openbind_a71ev2a_c2_elabs,syndirella_product,openbind_a71ev2a_c2_elabs_scored,BulkDock Fragalysis export,openbind_a71ev2a_c2_elabs_scored_top80percent,openbind_a71ev2a_c2_elabs_scored_top80percent_despaghettified,syndirella_placed

>  <smina_score_min>  (274) 
-6.188

$$$$
P570464
     RDKit          3D

 23 26  0  0  0  0  0  0  0  0999 V2000
    8.9607    8.9789   23.6948 C   0  0  0  0  0  0  0  0  0  0  0  0
    8.4345   10.2473   24.1515 N   0  0  0  0  0  0  0  0  0  0  0  0
    9.0434   11.3724   23.7464 N   0  0  0  0  0  0  0  0  0  0  0  0
    8.4772   12.3416   24.5023 C   0  0  0  0  0  0  0  0  0  0  0  0
    9.0967   13.6568   24.6193 C   0  0  0  0  0  0  0  0  0  0  0  0
    8.6452   14.5772   25.1634 O   0  0  0  0  0  0  0  0  0  0  0  0
   10.4521   13.4666   23.9660 N   0  0  0  0  0  0  0  0  0  0  0  0
   11.5546   14.3035   23.9181 C   0  0  1  0  0  0  0  0  0  0  0  0
   12.7674   13.6535   23.3617 C   0  0  0  0  0  0  0  0  0  0  0  0
   12.1160   14.7509   22.5974 C   0  0  1  0  0  0  0  0  0  0  0  0
   11.2544   14.5550   21.4161 C   0  0  0  0  0  0  0  0  0  0  0  0
   10.1197   15.5560   21.5623 C   0  0  0  0  0  0  0  0  0  0  0  0
    9.1932   15.4232   20.4051 C   0  0  0  0  0  0  0  0  0  0  0  0
    9.9450   15.7621   19.1324 C   0  0  0  0  0  0  0  0  0  0  0  0
   11.2035   14.9390   18.9092 C   0  0  0  0  0  0  0  0  0  0  0  0
   12.0587   14.7957   20.1485 C   0  0  0  0  0  0  0  0  0  0  0  0
    7.4150   11.8636   25.2666 C   0  0  0  0  0  0  0  0  0  0  0  0
    6.5362   12.4448   26.1881 C   0  0  0  0  0  0  0  0  0  0  0  0
    5.6884   11.6074   26.8884 C   0  0  0  0  0  0  0  0  0  0  0  0
    4.8735   12.1404   27.8024 F   0  0  0  0  0  0  0  0  0  0  0  0
    5.6902   10.2370   26.6860 C   0  0  0  0  0  0  0  0  0  0  0  0
    6.5512    9.6627   25.7502 C   0  0  0  0  0  0  0  0  0  0  0  0
    7.4293   10.4890   25.0581 C   0  0  0  0  0  0  0  0  0  0  0  0
  1  2  1  0
  2  3  1  0
  3  4  2  0
  4  5  1  0
  5  6  2  0
  5  7  1  0
  8  7  1  6
  8  9  1  0
  9 10  1  0
 10 11  1  6
 11 12  1  0
 12 13  1  0
 13 14  1  0
 14 15  1  0
 15 16  1  0
  4 17  1  0
 17 18  2  0
 18 19  1  0
 19 20  1  0
 19 21  2  0
 21 22  1  0
 22 23  2  0
 23  2  1  0
 10  8  1  0
 16 11  1  0
 23 17  1  0
M  END
>  <alias>  (275) 
None

>  <rmsd(smina/fragmenstein)>  (275) 
0.45

>  <smiles>  (275) 
Cn1nc(C(=O)N[C@H]2C[C@H]2C2CCCCC2)c2cc(F)ccc21

>  <gnina_score>  (275) 
5.91

>  <inspiration_score>  (275) 
None

>  <energy_score>  (275) 
-18.616503

>  <distance_score>  (275) 
1.543116

>  <gnina_score_min>  (275) 
5.84

>  <inchikey>  (275) 
ZGWWWMHRMCCBHI-ZFWWWQNUSA-N

>  <exports>  (275) 
['/opt/xchem-fragalysis-2/maxwin/BulkDock/OUTPUTS/openbind_a71ev2a_c2_elabs_1LOUU54.sdf', '/opt/xchem-fragalysis-2/maxwin/BulkDock/OUTPUTS/openbind_a71ev2a_c2_elabs_1LSYIDY.sdf']

>  <name>  (275) 
P570464

>  <ref_pdb>  (275) 
A2339a

>  <subsites>  (275) 
None

>  <HIPPO Pose ID>  (275) 
570464

>  <ref_mols>  (275) 
A2339a

>  <HIPPO Compound ID>  (275) 
411427

>  <tags>  (275) 
openbind_a71ev2a_c2_elabs,syndirella_product,openbind_a71ev2a_c2_elabs_scored,BulkDock Fragalysis export,openbind_a71ev2a_c2_elabs_scored_top80percent,openbind_a71ev2a_c2_elabs_scored_top80percent_despaghettified,syndirella_placed

>  <smina_score_min>  (275) 
-7.077

$$$$
P570469
     RDKit          3D

 23 25  0  0  0  0  0  0  0  0999 V2000
    9.5908   17.5879   20.2680 C   0  0  0  0  0  0  0  0  0  0  0  0
   10.3104   16.2519   20.3944 C   0  0  0  0  0  0  0  0  0  0  0  0
   10.1193   15.3237   19.2239 C   0  0  0  0  0  0  0  0  0  0  0  0
   10.0382   15.6956   21.7005 N   0  0  0  0  0  0  0  0  0  0  0  0
   11.2707   15.3829   22.4227 C   0  0  0  0  0  0  0  0  0  0  0  0
   11.8956   14.0081   22.2267 C   0  0  0  0  0  0  0  0  0  0  0  0
   11.0302   13.0252   22.7829 N   0  0  0  0  0  0  0  0  0  0  0  0
   10.2846   12.9982   24.1189 C   0  0  0  0  0  0  0  0  0  0  0  0
   10.3161   13.7392   25.0167 O   0  0  0  0  0  0  0  0  0  0  0  0
    9.3741   11.8606   24.1017 C   0  0  0  0  0  0  0  0  0  0  0  0
    9.6338   10.8026   23.3200 N   0  0  0  0  0  0  0  0  0  0  0  0
    8.8230    9.8520   23.8030 N   0  0  0  0  0  0  0  0  0  0  0  0
    9.0690    8.4927   23.4000 C   0  0  0  0  0  0  0  0  0  0  0  0
    7.9047   10.3252   24.7127 C   0  0  0  0  0  0  0  0  0  0  0  0
    6.8706    9.7262   25.4361 C   0  0  0  0  0  0  0  0  0  0  0  0
    6.1040   10.5132   26.2967 C   0  0  0  0  0  0  0  0  0  0  0  0
    6.3707   11.8639   26.4289 C   0  0  0  0  0  0  0  0  0  0  0  0
    5.6390   12.5948   27.2791 F   0  0  0  0  0  0  0  0  0  0  0  0
    7.4200   12.4621   25.7405 C   0  0  0  0  0  0  0  0  0  0  0  0
    8.2054   11.6718   24.8769 C   0  0  0  0  0  0  0  0  0  0  0  0
    8.8439   14.8668   21.8540 C   0  0  0  0  0  0  0  0  0  0  0  0
    8.0475   14.8462   23.1324 C   0  0  0  0  0  0  0  0  0  0  0  0
    7.4875   15.5255   21.9402 C   0  0  0  0  0  0  0  0  0  0  0  0
  1  2  1  0
  2  3  1  0
  2  4  1  0
  4  5  1  0
  5  6  1  0
  6  7  1  0
  7  8  1  0
  8  9  2  0
  8 10  1  0
 10 11  2  0
 11 12  1  0
 12 13  1  0
 12 14  1  0
 14 15  2  0
 15 16  1  0
 16 17  2  0
 17 18  1  0
 17 19  1  0
 19 20  2  0
  4 21  1  0
 21 22  1  0
 22 23  1  0
 20 10  1  0
 23 21  1  0
 20 14  1  0
M  END
>  <alias>  (276) 
None

>  <rmsd(smina/fragmenstein)>  (276) 
0.352

>  <smiles>  (276) 
CC(C)N(CCNC(=O)c1nn(C)c2ccc(F)cc12)C1CC1

>  <gnina_score>  (276) 
6.115

>  <inspiration_score>  (276) 
None

>  <energy_score>  (276) 
-9.529289

>  <distance_score>  (276) 
0.908124

>  <gnina_score_min>  (276) 
6.195

>  <inchikey>  (276) 
MGAJAUNLGPPGSH-UHFFFAOYSA-N

>  <exports>  (276) 
['/opt/xchem-fragalysis-2/maxwin/BulkDock/OUTPUTS/openbind_a71ev2a_c2_elabs_1LOUU54.sdf', '/opt/xchem-fragalysis-2/maxwin/BulkDock/OUTPUTS/openbind_a71ev2a_c2_elabs_1LSYIDY.sdf']

>  <name>  (276) 
P570469

>  <ref_pdb>  (276) 
A2339a

>  <subsites>  (276) 
None

>  <HIPPO Pose ID>  (276) 
570469

>  <ref_mols>  (276) 
A2339a

>  <HIPPO Compound ID>  (276) 
411441

>  <tags>  (276) 
openbind_a71ev2a_c2_elabs,syndirella_product,openbind_a71ev2a_c2_elabs_scored,BulkDock Fragalysis export,openbind_a71ev2a_c2_elabs_scored_top80percent,openbind_a71ev2a_c2_elabs_scored_6plus,openbind_a71ev2a_c2_elabs_scored_top80percent_despaghettified,syndirella_placed

>  <smina_score_min>  (276) 
-6.367

$$$$
P570470
     RDKit          3D

 23 26  0  0  0  0  0  0  0  0999 V2000
    9.3643    8.8221   23.1237 C   0  0  0  0  0  0  0  0  0  0  0  0
    9.0779   10.1306   23.6630 N   0  0  0  0  0  0  0  0  0  0  0  0
    9.8449   11.1585   23.2668 N   0  0  0  0  0  0  0  0  0  0  0  0
    9.4466   12.1845   24.0360 C   0  0  0  0  0  0  0  0  0  0  0  0
   10.2249   13.4255   24.0807 C   0  0  0  0  0  0  0  0  0  0  0  0
   10.0917   14.1942   24.9448 O   0  0  0  0  0  0  0  0  0  0  0  0
   11.1020   13.4824   22.8285 N   0  0  0  0  0  0  0  0  0  0  0  0
   11.9272   14.5283   22.3223 C   0  0  0  0  0  0  0  0  0  0  0  0
   11.6802   14.7097   20.8879 C   0  0  0  0  0  0  0  0  0  0  0  0
   12.5754   14.5653   19.9309 N   0  0  0  0  0  0  0  0  0  0  0  0
   11.9777   14.8421   18.7272 N   0  0  0  0  0  0  0  0  0  0  0  0
   10.7377   15.1691   18.9820 C   0  0  0  0  0  0  0  0  0  0  0  0
   10.4988   15.0589   20.3089 N   0  0  0  0  0  0  0  0  0  0  0  0
    9.1575   15.2432   20.8813 C   0  0  0  0  0  0  0  0  0  0  0  0
    8.8100   15.5518   22.3027 C   0  0  0  0  0  0  0  0  0  0  0  0
    8.7232   16.6326   21.2793 C   0  0  0  0  0  0  0  0  0  0  0  0
    8.2777   11.8623   24.7693 C   0  0  0  0  0  0  0  0  0  0  0  0
    7.3958   12.5535   25.6226 C   0  0  0  0  0  0  0  0  0  0  0  0
    6.4069   11.8307   26.2854 C   0  0  0  0  0  0  0  0  0  0  0  0
    5.5905   12.4640   27.1376 F   0  0  0  0  0  0  0  0  0  0  0  0
    6.2842   10.4583   26.1283 C   0  0  0  0  0  0  0  0  0  0  0  0
    7.1411    9.7687   25.2687 C   0  0  0  0  0  0  0  0  0  0  0  0
    8.1145   10.4931   24.5756 C   0  0  0  0  0  0  0  0  0  0  0  0
  1  2  1  0
  2  3  1  0
  3  4  2  0
  4  5  1  0
  5  6  2  0
  5  7  1  0
  7  8  1  0
  8  9  1  0
  9 10  2  0
 10 11  1  0
 11 12  2  0
 12 13  1  0
 13 14  1  0
 14 15  1  0
 15 16  1  0
  4 17  1  0
 17 18  2  0
 18 19  1  0
 19 20  1  0
 19 21  2  0
 21 22  1  0
 22 23  2  0
 23  2  1  0
 13  9  1  0
 16 14  1  0
 23 17  1  0
M  END
>  <alias>  (277) 
None

>  <rmsd(smina/fragmenstein)>  (277) 
0.351

>  <smiles>  (277) 
Cn1nc(C(=O)NCc2nncn2C2CC2)c2cc(F)ccc21

>  <gnina_score>  (277) 
6.248

>  <inspiration_score>  (277) 
None

>  <energy_score>  (277) 
-14.760484

>  <distance_score>  (277) 
0.630469

>  <gnina_score_min>  (277) 
6.267

>  <inchikey>  (277) 
YZFMRCJYCGOTLT-UHFFFAOYSA-N

>  <exports>  (277) 
['/opt/xchem-fragalysis-2/maxwin/BulkDock/OUTPUTS/openbind_a71ev2a_c2_elabs_1LOUU54.sdf', '/opt/xchem-fragalysis-2/maxwin/BulkDock/OUTPUTS/openbind_a71ev2a_c2_elabs_1LSYIDY.sdf']

>  <name>  (277) 
P570470

>  <ref_pdb>  (277) 
A2339a

>  <subsites>  (277) 
None

>  <HIPPO Pose ID>  (277) 
570470

>  <ref_mols>  (277) 
A2339a

>  <HIPPO Compound ID>  (277) 
411443

>  <tags>  (277) 
openbind_a71ev2a_c2_elabs,syndirella_product,openbind_a71ev2a_c2_elabs_scored,BulkDock Fragalysis export,openbind_a71ev2a_c2_elabs_scored_top80percent,openbind_a71ev2a_c2_elabs_scored_6plus,openbind_a71ev2a_c2_elabs_scored_top80percent_despaghettified,syndirella_placed

>  <smina_score_min>  (277) 
-6.802

$$$$
P570471
     RDKit          3D

 23 26  0  0  0  0  0  0  0  0999 V2000
    9.4654    8.9304   23.2252 C   0  0  0  0  0  0  0  0  0  0  0  0
    9.1028   10.1805   23.8545 N   0  0  0  0  0  0  0  0  0  0  0  0
    9.7795   11.2951   23.5069 N   0  0  0  0  0  0  0  0  0  0  0  0
    9.2829   12.2452   24.3152 C   0  0  0  0  0  0  0  0  0  0  0  0
    9.4812   13.6611   24.0854 C   0  0  0  0  0  0  0  0  0  0  0  0
    9.8792   14.4395   24.8528 O   0  0  0  0  0  0  0  0  0  0  0  0
    8.9518   13.8496   22.6714 N   0  0  0  0  0  0  0  0  0  0  0  0
    8.7121   15.0079   21.9434 C   0  0  0  0  0  0  0  0  0  0  0  0
    7.2461   15.3768   22.2349 C   0  0  0  0  0  0  0  0  0  0  0  0
    6.8640   16.0867   23.3870 C   0  0  0  0  0  0  0  0  0  0  0  0
    5.5270   16.3012   23.7519 C   0  0  0  0  0  0  0  0  0  0  0  0
    4.5052   15.7451   23.0003 C   0  0  0  0  0  0  0  0  0  0  0  0
    4.8318   14.9587   21.9079 C   0  0  0  0  0  0  0  0  0  0  0  0
    6.1767   14.7711   21.5579 C   0  0  0  0  0  0  0  0  0  0  0  0
    9.7740   16.0219   21.6159 C   0  0  0  0  0  0  0  0  0  0  0  0
    9.3767   15.0328   20.5824 C   0  0  0  0  0  0  0  0  0  0  0  0
    8.1680   11.7793   25.0498 C   0  0  0  0  0  0  0  0  0  0  0  0
    7.1889   12.3860   25.8593 C   0  0  0  0  0  0  0  0  0  0  0  0
    6.2171   11.5796   26.4356 C   0  0  0  0  0  0  0  0  0  0  0  0
    5.3199   12.1329   27.2604 F   0  0  0  0  0  0  0  0  0  0  0  0
    6.1877   10.2135   26.2055 C   0  0  0  0  0  0  0  0  0  0  0  0
    7.1267    9.6222   25.3554 C   0  0  0  0  0  0  0  0  0  0  0  0
    8.0972   10.4256   24.7618 C   0  0  0  0  0  0  0  0  0  0  0  0
  1  2  1  0
  2  3  1  0
  3  4  2  0
  4  5  1  0
  5  6  2  0
  5  7  1  0
  7  8  1  0
  8  9  1  0
  9 10  2  0
 10 11  1  0
 11 12  2  0
 12 13  1  0
 13 14  2  0
  8 15  1  0
 15 16  1  0
  4 17  1  0
 17 18  2  0
 18 19  1  0
 19 20  1  0
 19 21  2  0
 21 22  1  0
 22 23  2  0
 23  2  1  0
 16  8  1  0
 23 17  1  0
 14  9  1  0
M  END
>  <alias>  (278) 
None

>  <rmsd(smina/fragmenstein)>  (278) 
0.552

>  <smiles>  (278) 
Cn1nc(C(=O)NC2(c3ccccc3)CC2)c2cc(F)ccc21

>  <gnina_score>  (278) 
5.562

>  <inspiration_score>  (278) 
None

>  <energy_score>  (278) 
-13.859719

>  <distance_score>  (278) 
1.130333

>  <gnina_score_min>  (278) 
5.686

>  <inchikey>  (278) 
YAJXNBRCMRWIMH-UHFFFAOYSA-N

>  <exports>  (278) 
['/opt/xchem-fragalysis-2/maxwin/BulkDock/OUTPUTS/openbind_a71ev2a_c2_elabs_1LOUU54.sdf', '/opt/xchem-fragalysis-2/maxwin/BulkDock/OUTPUTS/openbind_a71ev2a_c2_elabs_1LSYIDY.sdf']

>  <name>  (278) 
P570471

>  <ref_pdb>  (278) 
A2339a

>  <subsites>  (278) 
None

>  <HIPPO Pose ID>  (278) 
570471

>  <ref_mols>  (278) 
A2339a

>  <HIPPO Compound ID>  (278) 
411444

>  <tags>  (278) 
openbind_a71ev2a_c2_elabs,syndirella_product,openbind_a71ev2a_c2_elabs_scored,BulkDock Fragalysis export,openbind_a71ev2a_c2_elabs_scored_top80percent,openbind_a71ev2a_c2_elabs_scored_top80percent_despaghettified,syndirella_placed

>  <smina_score_min>  (278) 
-6.682

$$$$
P570472
     RDKit          3D

 23 26  0  0  0  0  0  0  0  0999 V2000
    9.5738    9.1615   23.1043 C   0  0  0  0  0  0  0  0  0  0  0  0
    9.1216   10.4359   23.6245 N   0  0  0  0  0  0  0  0  0  0  0  0
    9.7307   11.5702   23.2178 N   0  0  0  0  0  0  0  0  0  0  0  0
    9.1294   12.5494   23.9207 C   0  0  0  0  0  0  0  0  0  0  0  0
    9.5745   13.9577   23.8375 C   0  0  0  0  0  0  0  0  0  0  0  0
    9.2078   14.7409   24.6162 O   0  0  0  0  0  0  0  0  0  0  0  0
   10.5665   14.0977   22.6814 N   0  0  0  0  0  0  0  0  0  0  0  0
   11.2476   15.2478   22.1762 C   0  0  0  0  0  0  0  0  0  0  0  0
   11.0880   15.3400   20.7280 C   0  0  0  0  0  0  0  0  0  0  0  0
   11.8379   14.7256   19.8336 N   0  0  0  0  0  0  0  0  0  0  0  0
   11.3498   15.0962   18.6126 N   0  0  0  0  0  0  0  0  0  0  0  0
   10.3353   15.9368   18.7442 N   0  0  0  0  0  0  0  0  0  0  0  0
   10.1797   16.1142   20.0581 N   0  0  0  0  0  0  0  0  0  0  0  0
    9.1265   17.0073   20.5914 C   0  0  0  0  0  0  0  0  0  0  0  0
    9.3146   18.3840   21.1246 C   0  0  0  0  0  0  0  0  0  0  0  0
    8.7416   18.2822   19.7990 C   0  0  0  0  0  0  0  0  0  0  0  0
    8.0899   12.0330   24.7398 C   0  0  0  0  0  0  0  0  0  0  0  0
    7.1498   12.5798   25.6337 C   0  0  0  0  0  0  0  0  0  0  0  0
    6.2936   11.7165   26.3116 C   0  0  0  0  0  0  0  0  0  0  0  0
    5.4236   12.2229   27.1949 F   0  0  0  0  0  0  0  0  0  0  0  0
    6.3444   10.3424   26.1212 C   0  0  0  0  0  0  0  0  0  0  0  0
    7.2704    9.7881   25.2347 C   0  0  0  0  0  0  0  0  0  0  0  0
    8.1277   10.6550   24.5490 C   0  0  0  0  0  0  0  0  0  0  0  0
  1  2  1  0
  2  3  1  0
  3  4  2  0
  4  5  1  0
  5  6  2  0
  5  7  1  0
  7  8  1  0
  8  9  1  0
  9 10  2  0
 10 11  1  0
 11 12  2  0
 12 13  1  0
 13 14  1  0
 14 15  1  0
 15 16  1  0
  4 17  1  0
 17 18  2  0
 18 19  1  0
 19 20  1  0
 19 21  2  0
 21 22  1  0
 22 23  2  0
 23  2  1  0
 13  9  1  0
 16 14  1  0
 23 17  1  0
M  END
>  <alias>  (279) 
None

>  <rmsd(smina/fragmenstein)>  (279) 
0.288

>  <smiles>  (279) 
Cn1nc(C(=O)NCc2nnnn2C2CC2)c2cc(F)ccc21

>  <gnina_score>  (279) 
6.034

>  <inspiration_score>  (279) 
None

>  <energy_score>  (279) 
-15.701676

>  <distance_score>  (279) 
0.499733

>  <gnina_score_min>  (279) 
6.089

>  <inchikey>  (279) 
IJEWKSGFHWLEQJ-UHFFFAOYSA-N

>  <exports>  (279) 
['/opt/xchem-fragalysis-2/maxwin/BulkDock/OUTPUTS/openbind_a71ev2a_c2_elabs_1LOUU54.sdf', '/opt/xchem-fragalysis-2/maxwin/BulkDock/OUTPUTS/openbind_a71ev2a_c2_elabs_1LSYIDY.sdf']

>  <name>  (279) 
P570472

>  <ref_pdb>  (279) 
A2339a

>  <subsites>  (279) 
None

>  <HIPPO Pose ID>  (279) 
570472

>  <ref_mols>  (279) 
A2339a

>  <HIPPO Compound ID>  (279) 
411445

>  <tags>  (279) 
openbind_a71ev2a_c2_elabs,syndirella_product,openbind_a71ev2a_c2_elabs_scored,BulkDock Fragalysis export,openbind_a71ev2a_c2_elabs_scored_top80percent,openbind_a71ev2a_c2_elabs_scored_6plus,openbind_a71ev2a_c2_elabs_scored_top80percent_despaghettified,syndirella_placed

>  <smina_score_min>  (279) 
-6.273

$$$$
P570473
     RDKit          3D

 23 26  0  0  0  0  0  0  0  0999 V2000
    8.8876    8.8247   23.7535 C   0  0  0  0  0  0  0  0  0  0  0  0
    8.4535   10.1078   24.2560 N   0  0  0  0  0  0  0  0  0  0  0  0
    9.0684   11.1974   23.7903 N   0  0  0  0  0  0  0  0  0  0  0  0
    8.5220   12.2142   24.4898 C   0  0  0  0  0  0  0  0  0  0  0  0
    8.8574   13.5834   24.1479 C   0  0  0  0  0  0  0  0  0  0  0  0
    8.6287   14.5284   24.7782 O   0  0  0  0  0  0  0  0  0  0  0  0
    9.4604   13.4460   22.7690 N   0  0  0  0  0  0  0  0  0  0  0  0
    9.8229   14.4156   21.8383 C   0  0  1  0  0  0  0  0  0  0  0  0
    8.9208   15.5995   21.5834 C   0  0  0  0  0  0  0  0  0  0  0  0
    9.8924   16.5024   20.8605 C   0  0  0  0  0  0  0  0  0  0  0  0
    9.5872   17.4273   20.1242 O   0  0  0  0  0  0  0  0  0  0  0  0
   11.1935   15.9961   21.0971 N   0  0  0  0  0  0  0  0  0  0  0  0
   11.9984   15.5656   20.0018 C   0  0  0  0  0  0  0  0  0  0  0  0
   11.5334   15.6089   18.5617 C   0  0  0  0  0  0  0  0  0  0  0  0
   11.7440   14.3195   19.2286 C   0  0  0  0  0  0  0  0  0  0  0  0
   11.1362   15.0453   22.1570 C   0  0  0  0  0  0  0  0  0  0  0  0
    7.5358   11.7843   25.3708 C   0  0  0  0  0  0  0  0  0  0  0  0
    6.6625   12.4302   26.2534 C   0  0  0  0  0  0  0  0  0  0  0  0
    5.7567   11.6506   26.9482 C   0  0  0  0  0  0  0  0  0  0  0  0
    4.9387   12.2428   27.8221 F   0  0  0  0  0  0  0  0  0  0  0  0
    5.6815   10.2809   26.7574 C   0  0  0  0  0  0  0  0  0  0  0  0
    6.5221    9.6477   25.8409 C   0  0  0  0  0  0  0  0  0  0  0  0
    7.4719   10.4091   25.1704 C   0  0  0  0  0  0  0  0  0  0  0  0
  1  2  1  0
  2  3  1  0
  3  4  2  0
  4  5  1  0
  5  6  2  0
  5  7  1  0
  8  7  1  1
  8  9  1  0
  9 10  1  0
 10 11  2  0
 10 12  1  0
 12 13  1  0
 13 14  1  0
 14 15  1  0
 12 16  1  0
  4 17  1  0
 17 18  2  0
 18 19  1  0
 19 20  1  0
 19 21  2  0
 21 22  1  0
 22 23  2  0
 23  2  1  0
 16  8  1  0
 23 17  1  0
 15 13  1  0
M  END
>  <alias>  (280) 
None

>  <rmsd(smina/fragmenstein)>  (280) 
0.264

>  <smiles>  (280) 
Cn1nc(C(=O)N[C@H]2CC(=O)N(C3CC3)C2)c2cc(F)ccc21

>  <gnina_score>  (280) 
5.829

>  <inspiration_score>  (280) 
None

>  <energy_score>  (280) 
-8.896087

>  <distance_score>  (280) 
1.229943

>  <gnina_score_min>  (280) 
5.827

>  <inchikey>  (280) 
GXDYATUWAQCLSF-JTQLQIEISA-N

>  <exports>  (280) 
['/opt/xchem-fragalysis-2/maxwin/BulkDock/OUTPUTS/openbind_a71ev2a_c2_elabs_1LOUU54.sdf', '/opt/xchem-fragalysis-2/maxwin/BulkDock/OUTPUTS/openbind_a71ev2a_c2_elabs_1LSYIDY.sdf']

>  <name>  (280) 
P570473

>  <ref_pdb>  (280) 
A2339a

>  <subsites>  (280) 
None

>  <HIPPO Pose ID>  (280) 
570473

>  <ref_mols>  (280) 
A2339a

>  <HIPPO Compound ID>  (280) 
411446

>  <tags>  (280) 
openbind_a71ev2a_c2_elabs,syndirella_product,openbind_a71ev2a_c2_elabs_scored,BulkDock Fragalysis export,openbind_a71ev2a_c2_elabs_scored_top80percent,openbind_a71ev2a_c2_elabs_scored_top80percent_despaghettified,syndirella_placed

>  <smina_score_min>  (280) 
-6.161

$$$$
P570475
     RDKit          3D

 23 26  0  0  0  0  0  0  0  0999 V2000
   10.5569   15.3535   18.9381 C   0  0  0  0  0  0  0  0  0  0  0  0
   10.6515   14.7701   20.3255 C   0  0  1  0  0  0  0  0  0  0  0  0
   12.1031   14.4004   20.6661 C   0  0  0  0  0  0  0  0  0  0  0  0
   12.0742   14.4574   22.1703 C   0  0  2  0  0  0  0  0  0  0  0  0
   11.2661   13.3858   22.7113 N   0  0  0  0  0  0  0  0  0  0  0  0
   10.4938   13.2898   24.0308 C   0  0  0  0  0  0  0  0  0  0  0  0
   10.4442   14.0259   24.9325 O   0  0  0  0  0  0  0  0  0  0  0  0
    9.6586   12.0839   23.9854 C   0  0  0  0  0  0  0  0  0  0  0  0
   10.0002   11.0384   23.2167 N   0  0  0  0  0  0  0  0  0  0  0  0
    9.1703   10.0571   23.6045 N   0  0  0  0  0  0  0  0  0  0  0  0
    9.3769    8.7371   23.0590 C   0  0  0  0  0  0  0  0  0  0  0  0
    8.2207   10.4719   24.5086 C   0  0  0  0  0  0  0  0  0  0  0  0
    7.2068    9.8000   25.1983 C   0  0  0  0  0  0  0  0  0  0  0  0
    6.3736   10.5391   26.0393 C   0  0  0  0  0  0  0  0  0  0  0  0
    6.5557   11.9071   26.1782 C   0  0  0  0  0  0  0  0  0  0  0  0
    5.7570   12.5865   27.0122 F   0  0  0  0  0  0  0  0  0  0  0  0
    7.5873   12.5753   25.5205 C   0  0  0  0  0  0  0  0  0  0  0  0
    8.4539   11.8319   24.6949 C   0  0  0  0  0  0  0  0  0  0  0  0
   11.3496   15.7926   22.2954 C   0  0  0  0  0  0  0  0  0  0  0  0
   10.2038   15.7242   21.3698 N   0  0  0  0  0  0  0  0  0  0  0  0
    8.9730   15.3543   22.1149 C   0  0  0  0  0  0  0  0  0  0  0  0
    7.7807   14.7219   21.4782 C   0  0  0  0  0  0  0  0  0  0  0  0
    7.7457   16.1688   21.8575 C   0  0  0  0  0  0  0  0  0  0  0  0
  2  1  1  6
  2  3  1  0
  3  4  1  0
  4  5  1  1
  5  6  1  0
  6  7  2  0
  6  8  1  0
  8  9  2  0
  9 10  1  0
 10 11  1  0
 10 12  1  0
 12 13  2  0
 13 14  1  0
 14 15  2  0
 15 16  1  0
 15 17  1  0
 17 18  2  0
  4 19  1  0
 19 20  1  0
 20 21  1  0
 21 22  1  0
 22 23  1  0
 20  2  1  0
 23 21  1  0
 18  8  1  0
 18 12  1  0
M  END
>  <alias>  (281) 
None

>  <rmsd(smina/fragmenstein)>  (281) 
0.506

>  <smiles>  (281) 
C[C@H]1C[C@H](NC(=O)c2nn(C)c3ccc(F)cc23)CN1C1CC1

>  <gnina_score>  (281) 
6.017

>  <inspiration_score>  (281) 
None

>  <energy_score>  (281) 
-20.320425

>  <distance_score>  (281) 
0.770734

>  <gnina_score_min>  (281) 
6.125

>  <inchikey>  (281) 
QETSGIUMLOXIDJ-JQWIXIFHSA-N

>  <exports>  (281) 
['/opt/xchem-fragalysis-2/maxwin/BulkDock/OUTPUTS/openbind_a71ev2a_c2_elabs_1LOUU54.sdf', '/opt/xchem-fragalysis-2/maxwin/BulkDock/OUTPUTS/openbind_a71ev2a_c2_elabs_1LSYIDY.sdf']

>  <name>  (281) 
P570475

>  <ref_pdb>  (281) 
A2339a

>  <subsites>  (281) 
None

>  <HIPPO Pose ID>  (281) 
570475

>  <ref_mols>  (281) 
A2339a

>  <HIPPO Compound ID>  (281) 
411452

>  <tags>  (281) 
openbind_a71ev2a_c2_elabs,syndirella_product,openbind_a71ev2a_c2_elabs_scored,BulkDock Fragalysis export,openbind_a71ev2a_c2_elabs_scored_top80percent,openbind_a71ev2a_c2_elabs_scored_6plus,openbind_a71ev2a_c2_elabs_scored_top80percent_despaghettified,syndirella_placed

>  <smina_score_min>  (281) 
-6.789

$$$$
P570477
     RDKit          3D

 23 25  0  0  0  0  0  0  0  0999 V2000
    9.0989    8.8487   23.5808 C   0  0  0  0  0  0  0  0  0  0  0  0
    8.6524   10.1526   24.0187 N   0  0  0  0  0  0  0  0  0  0  0  0
    9.3631   11.2224   23.6369 N   0  0  0  0  0  0  0  0  0  0  0  0
    8.8237   12.2460   24.3232 C   0  0  0  0  0  0  0  0  0  0  0  0
    9.5129   13.5288   24.3854 C   0  0  0  0  0  0  0  0  0  0  0  0
    9.0022   14.5317   24.6703 O   0  0  0  0  0  0  0  0  0  0  0  0
   10.9566   13.2267   24.0184 N   0  0  0  0  0  0  0  0  0  0  0  0
   12.0599   14.0945   23.8300 C   0  0  0  0  0  0  0  0  0  0  0  0
   12.0192   14.1484   22.3234 C   0  0  0  0  0  0  0  0  0  0  0  0
   12.5763   13.3603   21.6793 O   0  0  0  0  0  0  0  0  0  0  0  0
   11.0828   15.2922   21.9070 N   0  0  0  0  0  0  0  0  0  0  0  0
   10.5713   15.6395   20.6445 C   0  0  0  0  0  0  0  0  0  0  0  0
   11.3123   15.1456   19.4956 C   0  0  0  0  0  0  0  0  0  0  0  0
   11.8722   14.7583   18.5569 N   0  0  0  0  0  0  0  0  0  0  0  0
    9.0730   15.4777   20.5570 C   0  0  0  0  0  0  0  0  0  0  0  0
    9.6845   16.8408   20.4550 C   0  0  0  0  0  0  0  0  0  0  0  0
    7.6995   11.8559   25.0611 C   0  0  0  0  0  0  0  0  0  0  0  0
    6.8153   12.5086   25.9327 C   0  0  0  0  0  0  0  0  0  0  0  0
    5.9094   11.7355   26.6420 C   0  0  0  0  0  0  0  0  0  0  0  0
    5.0957   12.3344   27.5177 F   0  0  0  0  0  0  0  0  0  0  0  0
    5.8596   10.3582   26.4972 C   0  0  0  0  0  0  0  0  0  0  0  0
    6.7203    9.7102   25.6103 C   0  0  0  0  0  0  0  0  0  0  0  0
    7.6470   10.4736   24.9031 C   0  0  0  0  0  0  0  0  0  0  0  0
  1  2  1  0
  2  3  1  0
  3  4  2  0
  4  5  1  0
  5  6  2  0
  5  7  1  0
  7  8  1  0
  8  9  1  0
  9 10  2  0
  9 11  1  0
 11 12  1  0
 12 13  1  0
 13 14  3  0
 12 15  1  0
 15 16  1  0
  4 17  1  0
 17 18  2  0
 18 19  1  0
 19 20  1  0
 19 21  2  0
 21 22  1  0
 22 23  2  0
 23  2  1  0
 16 12  1  0
 23 17  1  0
M  END
>  <alias>  (282) 
None

>  <rmsd(smina/fragmenstein)>  (282) 
0.418

>  <smiles>  (282) 
Cn1nc(C(=O)NCC(=O)NC2(C#N)CC2)c2cc(F)ccc21

>  <gnina_score>  (282) 
6.212

>  <inspiration_score>  (282) 
None

>  <energy_score>  (282) 
-12.71096

>  <distance_score>  (282) 
1.27232

>  <gnina_score_min>  (282) 
6.074

>  <inchikey>  (282) 
MVXMHGMVLMOHQA-UHFFFAOYSA-N

>  <exports>  (282) 
['/opt/xchem-fragalysis-2/maxwin/BulkDock/OUTPUTS/openbind_a71ev2a_c2_elabs_1LOUU54.sdf', '/opt/xchem-fragalysis-2/maxwin/BulkDock/OUTPUTS/openbind_a71ev2a_c2_elabs_1LSYIDY.sdf']

>  <name>  (282) 
P570477

>  <ref_pdb>  (282) 
A2339a

>  <subsites>  (282) 
None

>  <HIPPO Pose ID>  (282) 
570477

>  <ref_mols>  (282) 
A2339a

>  <HIPPO Compound ID>  (282) 
411453

>  <tags>  (282) 
openbind_a71ev2a_c2_elabs,syndirella_product,openbind_a71ev2a_c2_elabs_scored,BulkDock Fragalysis export,openbind_a71ev2a_c2_elabs_scored_top80percent,openbind_a71ev2a_c2_elabs_scored_6plus,openbind_a71ev2a_c2_elabs_scored_top80percent_despaghettified,syndirella_placed

>  <smina_score_min>  (282) 
-6.635

$$$$
P570478
     RDKit          3D

 23 25  0  0  0  0  0  0  0  0999 V2000
    9.2137    9.5078   23.3969 C   0  0  0  0  0  0  0  0  0  0  0  0
    8.5330   10.6440   23.9911 N   0  0  0  0  0  0  0  0  0  0  0  0
    8.7438   11.8918   23.5045 N   0  0  0  0  0  0  0  0  0  0  0  0
    7.9244   12.6730   24.2532 C   0  0  0  0  0  0  0  0  0  0  0  0
    7.6874   14.0939   23.9780 C   0  0  0  0  0  0  0  0  0  0  0  0
    7.2175   14.8189   24.7526 O   0  0  0  0  0  0  0  0  0  0  0  0
    8.1479   14.3386   22.5540 N   0  0  0  0  0  0  0  0  0  0  0  0
    8.0491   15.4957   21.7377 C   0  0  0  0  0  0  0  0  0  0  0  0
    9.3931   15.8493   21.0939 C   0  0  0  0  0  0  0  0  0  0  0  0
   10.5478   15.0074   21.4661 N   0  0  0  0  0  0  0  0  0  0  0  0
   10.8852   15.1003   22.9038 C   0  0  0  0  0  0  0  0  0  0  0  0
   11.6305   13.8475   23.4179 C   0  0  0  0  0  0  0  0  0  0  0  0
   10.9912   13.2689   24.5513 O   0  0  0  0  0  0  0  0  0  0  0  0
   11.6549   15.3734   20.5878 C   0  0  0  0  0  0  0  0  0  0  0  0
   12.5826   14.3248   20.1082 C   0  0  0  0  0  0  0  0  0  0  0  0
   13.0659   15.3714   21.0658 C   0  0  0  0  0  0  0  0  0  0  0  0
    7.2726   11.9467   25.2502 C   0  0  0  0  0  0  0  0  0  0  0  0
    6.3609   12.2868   26.2544 C   0  0  0  0  0  0  0  0  0  0  0  0
    5.7342   11.2610   26.9296 C   0  0  0  0  0  0  0  0  0  0  0  0
    4.8593   11.5776   27.8875 F   0  0  0  0  0  0  0  0  0  0  0  0
    5.9821    9.9333   26.6195 C   0  0  0  0  0  0  0  0  0  0  0  0
    6.9259    9.5944   25.6424 C   0  0  0  0  0  0  0  0  0  0  0  0
    7.5830   10.6233   24.9821 C   0  0  0  0  0  0  0  0  0  0  0  0
  1  2  1  0
  2  3  1  0
  3  4  2  0
  4  5  1  0
  5  6  2  0
  5  7  1  0
  7  8  1  0
  8  9  1  0
  9 10  1  0
 10 11  1  0
 11 12  1  0
 12 13  1  0
 10 14  1  0
 14 15  1  0
 15 16  1  0
  4 17  1  0
 17 18  2  0
 18 19  1  0
 19 20  1  0
 19 21  2  0
 21 22  1  0
 22 23  2  0
 23  2  1  0
 16 14  1  0
 23 17  1  0
M  END
>  <alias>  (283) 
None

>  <rmsd(smina/fragmenstein)>  (283) 
0.94

>  <smiles>  (283) 
Cn1nc(C(=O)NCCN(CCO)C2CC2)c2cc(F)ccc21

>  <gnina_score>  (283) 
5.219

>  <inspiration_score>  (283) 
None

>  <energy_score>  (283) 
-11.887168

>  <distance_score>  (283) 
1.662414

>  <gnina_score_min>  (283) 
5.206

>  <inchikey>  (283) 
CTWCMRAUSKXROO-UHFFFAOYSA-N

>  <exports>  (283) 
['/opt/xchem-fragalysis-2/maxwin/BulkDock/OUTPUTS/openbind_a71ev2a_c2_elabs_1LOUU54.sdf', '/opt/xchem-fragalysis-2/maxwin/BulkDock/OUTPUTS/openbind_a71ev2a_c2_elabs_1LSYIDY.sdf']

>  <name>  (283) 
P570478

>  <ref_pdb>  (283) 
A2339a

>  <subsites>  (283) 
None

>  <HIPPO Pose ID>  (283) 
570478

>  <ref_mols>  (283) 
A2339a

>  <HIPPO Compound ID>  (283) 
411455

>  <tags>  (283) 
openbind_a71ev2a_c2_elabs,syndirella_product,openbind_a71ev2a_c2_elabs_scored,BulkDock Fragalysis export,openbind_a71ev2a_c2_elabs_scored_top80percent,openbind_a71ev2a_c2_elabs_scored_top80percent_despaghettified,syndirella_placed

>  <smina_score_min>  (283) 
-6.122

$$$$
P570481
     RDKit          3D

 23 26  0  0  0  0  0  0  0  0999 V2000
    9.3540    7.9911   23.3497 C   0  0  0  0  0  0  0  0  0  0  0  0
    9.0539    9.3752   23.5082 N   0  0  0  0  0  0  0  0  0  0  0  0
    9.8460   10.2105   22.8447 N   0  0  0  0  0  0  0  0  0  0  0  0
    9.6237   11.3572   23.4575 C   0  0  0  0  0  0  0  0  0  0  0  0
   10.5334   12.4574   23.4244 C   0  0  0  0  0  0  0  0  0  0  0  0
   11.6186   12.4125   23.8315 O   0  0  0  0  0  0  0  0  0  0  0  0
    9.7406   13.6187   22.8684 N   0  0  0  0  0  0  0  0  0  0  0  0
   10.0542   14.9506   22.7782 C   0  0  0  0  0  0  0  0  0  0  0  0
    9.8282   15.3687   24.2377 C   0  0  0  0  0  0  0  0  0  0  0  0
   10.8175   15.1748   25.2116 C   0  0  0  0  0  0  0  0  0  0  0  0
   10.5407   15.3750   26.5670 C   0  0  0  0  0  0  0  0  0  0  0  0
    9.2570   15.7329   26.9522 C   0  0  0  0  0  0  0  0  0  0  0  0
    8.2993   15.8513   25.9649 C   0  0  0  0  0  0  0  0  0  0  0  0
    8.5564   15.6521   24.6488 N   0  0  0  0  0  0  0  0  0  0  0  0
    9.7577   15.7471   21.5454 C   0  0  0  0  0  0  0  0  0  0  0  0
   11.1820   15.4371   21.9109 C   0  0  0  0  0  0  0  0  0  0  0  0
    8.4710   11.3266   24.2992 C   0  0  0  0  0  0  0  0  0  0  0  0
    7.7473   12.2384   25.0990 C   0  0  0  0  0  0  0  0  0  0  0  0
    6.7399   11.7711   25.9396 C   0  0  0  0  0  0  0  0  0  0  0  0
    6.0828   12.6228   26.7391 F   0  0  0  0  0  0  0  0  0  0  0  0
    6.4562   10.4243   26.0171 C   0  0  0  0  0  0  0  0  0  0  0  0
    7.1819    9.5186   25.2435 C   0  0  0  0  0  0  0  0  0  0  0  0
    8.1689    9.9803   24.3690 C   0  0  0  0  0  0  0  0  0  0  0  0
  1  2  1  0
  2  3  1  0
  3  4  2  0
  4  5  1  0
  5  6  2  0
  5  7  1  0
  7  8  1  0
  8  9  1  0
  9 10  2  0
 10 11  1  0
 11 12  2  0
 12 13  1  0
 13 14  2  0
  8 15  1  0
 15 16  1  0
  4 17  1  0
 17 18  2  0
 18 19  1  0
 19 20  1  0
 19 21  2  0
 21 22  1  0
 22 23  2  0
 23  2  1  0
 16  8  1  0
 23 17  1  0
 14  9  1  0
M  END
>  <alias>  (284) 
None

>  <rmsd(smina/fragmenstein)>  (284) 
0.191

>  <smiles>  (284) 
Cn1nc(C(=O)NC2(c3ccccn3)CC2)c2cc(F)ccc21

>  <gnina_score>  (284) 
6.16

>  <inspiration_score>  (284) 
None

>  <energy_score>  (284) 
-1.340518

>  <distance_score>  (284) 
1.161303

>  <gnina_score_min>  (284) 
6.158

>  <inchikey>  (284) 
QTHOYCLORRKFIV-UHFFFAOYSA-N

>  <exports>  (284) 
['/opt/xchem-fragalysis-2/maxwin/BulkDock/OUTPUTS/openbind_a71ev2a_c2_elabs_1LOUU54.sdf', '/opt/xchem-fragalysis-2/maxwin/BulkDock/OUTPUTS/openbind_a71ev2a_c2_elabs_1LSYIDY.sdf']

>  <name>  (284) 
P570481

>  <ref_pdb>  (284) 
A2339a

>  <subsites>  (284) 
None

>  <HIPPO Pose ID>  (284) 
570481

>  <ref_mols>  (284) 
A2339a

>  <HIPPO Compound ID>  (284) 
411457

>  <tags>  (284) 
openbind_a71ev2a_c2_elabs,syndirella_product,openbind_a71ev2a_c2_elabs_scored,BulkDock Fragalysis export,openbind_a71ev2a_c2_elabs_scored_top80percent,openbind_a71ev2a_c2_elabs_scored_6plus,openbind_a71ev2a_c2_elabs_scored_top80percent_despaghettified,syndirella_placed

>  <smina_score_min>  (284) 
-5.411

$$$$
P570482
     RDKit          3D

 23 25  0  0  0  0  0  0  0  0999 V2000
    8.9254   15.6564   26.2864 C   0  0  0  0  0  0  0  0  0  0  0  0
   10.3649   15.2037   26.4911 C   0  0  0  0  0  0  0  0  0  0  0  0
   10.8806   15.6920   27.8370 C   0  0  0  0  0  0  0  0  0  0  0  0
   11.2298   15.6951   25.4573 O   0  0  0  0  0  0  0  0  0  0  0  0
   11.3290   14.8120   24.3244 C   0  0  0  0  0  0  0  0  0  0  0  0
   11.0518   15.5183   22.9654 C   0  0  0  0  0  0  0  0  0  0  0  0
   10.9784   14.5511   21.8037 C   0  0  0  0  0  0  0  0  0  0  0  0
   10.2657   13.4434   22.2615 N   0  0  0  0  0  0  0  0  0  0  0  0
    8.8975   13.3536   22.9446 C   0  0  0  0  0  0  0  0  0  0  0  0
    8.1094   14.1797   23.1661 O   0  0  0  0  0  0  0  0  0  0  0  0
    8.6998   12.0041   23.4289 C   0  0  0  0  0  0  0  0  0  0  0  0
    9.4520   10.9716   23.0243 N   0  0  0  0  0  0  0  0  0  0  0  0
    8.9261    9.9224   23.6813 N   0  0  0  0  0  0  0  0  0  0  0  0
    9.4372    8.6087   23.3773 C   0  0  0  0  0  0  0  0  0  0  0  0
    7.9523   10.2822   24.5854 C   0  0  0  0  0  0  0  0  0  0  0  0
    7.1305    9.5625   25.4485 C   0  0  0  0  0  0  0  0  0  0  0  0
    6.2574   10.2523   26.2937 C   0  0  0  0  0  0  0  0  0  0  0  0
    6.2106   11.6349   26.2654 C   0  0  0  0  0  0  0  0  0  0  0  0
    5.4102   12.2838   27.1201 F   0  0  0  0  0  0  0  0  0  0  0  0
    6.9783   12.3598   25.3635 C   0  0  0  0  0  0  0  0  0  0  0  0
    7.8424   11.6600   24.4975 C   0  0  0  0  0  0  0  0  0  0  0  0
   12.0894   14.5389   20.8007 C   0  0  0  0  0  0  0  0  0  0  0  0
   10.7513   15.1071   20.4263 C   0  0  0  0  0  0  0  0  0  0  0  0
  1  2  1  0
  2  3  1  0
  2  4  1  0
  4  5  1  0
  5  6  1  0
  6  7  1  0
  7  8  1  0
  8  9  1  0
  9 10  2  0
  9 11  1  0
 11 12  2  0
 12 13  1  0
 13 14  1  0
 13 15  1  0
 15 16  2  0
 16 17  1  0
 17 18  2  0
 18 19  1  0
 18 20  1  0
 20 21  2  0
  7 22  1  0
 22 23  1  0
 23  7  1  0
 21 11  1  0
 21 15  1  0
M  END
>  <alias>  (285) 
None

>  <rmsd(smina/fragmenstein)>  (285) 
0.438

>  <smiles>  (285) 
CC(C)OCCC1(NC(=O)c2nn(C)c3ccc(F)cc23)CC1

>  <gnina_score>  (285) 
5.892

>  <inspiration_score>  (285) 
None

>  <energy_score>  (285) 
-37.798902

>  <distance_score>  (285) 
0.600605

>  <gnina_score_min>  (285) 
5.869

>  <inchikey>  (285) 
BHUZXVLZXCMYGM-UHFFFAOYSA-N

>  <exports>  (285) 
['/opt/xchem-fragalysis-2/maxwin/BulkDock/OUTPUTS/openbind_a71ev2a_c2_elabs_1LOUU54.sdf', '/opt/xchem-fragalysis-2/maxwin/BulkDock/OUTPUTS/openbind_a71ev2a_c2_elabs_1LSYIDY.sdf']

>  <name>  (285) 
P570482

>  <ref_pdb>  (285) 
A2339a

>  <subsites>  (285) 
None

>  <HIPPO Pose ID>  (285) 
570482

>  <ref_mols>  (285) 
A2339a

>  <HIPPO Compound ID>  (285) 
411459

>  <tags>  (285) 
openbind_a71ev2a_c2_elabs,syndirella_product,openbind_a71ev2a_c2_elabs_scored,BulkDock Fragalysis export,openbind_a71ev2a_c2_elabs_scored_top80percent,openbind_a71ev2a_c2_elabs_scored_top80percent_despaghettified,syndirella_placed

>  <smina_score_min>  (285) 
-5.683

$$$$
P570489
     RDKit          3D

 23 25  0  0  0  0  0  0  0  0999 V2000
    9.5663    8.8078   23.2929 C   0  0  0  0  0  0  0  0  0  0  0  0
    8.9921   10.0960   23.6042 N   0  0  0  0  0  0  0  0  0  0  0  0
    9.4540   11.1771   22.9469 N   0  0  0  0  0  0  0  0  0  0  0  0
    8.6118   12.1610   23.3091 C   0  0  0  0  0  0  0  0  0  0  0  0
    8.6763   13.5060   22.7196 C   0  0  0  0  0  0  0  0  0  0  0  0
    7.8149   14.2723   22.8787 O   0  0  0  0  0  0  0  0  0  0  0  0
   10.0343   13.6671   22.0290 N   0  0  0  0  0  0  0  0  0  0  0  0
   10.6512   14.8050   21.4813 C   0  0  0  0  0  0  0  0  0  0  0  0
   11.4642   15.5345   22.5235 C   0  0  0  0  0  0  0  0  0  0  0  0
   10.7721   15.6137   23.7873 O   0  0  0  0  0  0  0  0  0  0  0  0
   11.0907   14.7920   24.9183 C   0  0  0  0  0  0  0  0  0  0  0  0
   12.1288   13.6961   24.6135 C   0  0  0  0  0  0  0  0  0  0  0  0
   11.4291   15.7200   26.1083 C   0  0  0  0  0  0  0  0  0  0  0  0
    9.7959   14.1712   25.4415 C   0  0  0  0  0  0  0  0  0  0  0  0
    9.9350   15.6204   20.4369 C   0  0  0  0  0  0  0  0  0  0  0  0
   11.1660   14.8536   20.0670 C   0  0  0  0  0  0  0  0  0  0  0  0
    7.7842   11.7603   24.3932 C   0  0  0  0  0  0  0  0  0  0  0  0
    6.8772   12.4004   25.2619 C   0  0  0  0  0  0  0  0  0  0  0  0
    6.1858   11.6304   26.1895 C   0  0  0  0  0  0  0  0  0  0  0  0
    5.3577   12.2285   27.0552 F   0  0  0  0  0  0  0  0  0  0  0  0
    6.3296   10.2532   26.2281 C   0  0  0  0  0  0  0  0  0  0  0  0
    7.2392    9.6169   25.3795 C   0  0  0  0  0  0  0  0  0  0  0  0
    8.0007   10.3944   24.5084 C   0  0  0  0  0  0  0  0  0  0  0  0
  1  2  1  0
  2  3  1  0
  3  4  2  0
  4  5  1  0
  5  6  2  0
  5  7  1  0
  7  8  1  0
  8  9  1  0
  9 10  1  0
 10 11  1  0
 11 12  1  0
 11 13  1  0
 11 14  1  0
  8 15  1  0
 15 16  1  0
  4 17  1  0
 17 18  2  0
 18 19  1  0
 19 20  1  0
 19 21  2  0
 21 22  1  0
 22 23  2  0
 23  2  1  0
 16  8  1  0
 23 17  1  0
M  END
>  <alias>  (286) 
None

>  <rmsd(smina/fragmenstein)>  (286) 
0.547

>  <smiles>  (286) 
Cn1nc(C(=O)NC2(COC(C)(C)C)CC2)c2cc(F)ccc21

>  <gnina_score>  (286) 
6.058

>  <inspiration_score>  (286) 
None

>  <energy_score>  (286) 
-18.44682

>  <distance_score>  (286) 
0.789073

>  <gnina_score_min>  (286) 
5.974

>  <inchikey>  (286) 
QHWYTJIJKYCEGY-UHFFFAOYSA-N

>  <exports>  (286) 
['/opt/xchem-fragalysis-2/maxwin/BulkDock/OUTPUTS/openbind_a71ev2a_c2_elabs_1LOUU54.sdf', '/opt/xchem-fragalysis-2/maxwin/BulkDock/OUTPUTS/openbind_a71ev2a_c2_elabs_1LSYIDY.sdf']

>  <name>  (286) 
P570489

>  <ref_pdb>  (286) 
A2339a

>  <subsites>  (286) 
None

>  <HIPPO Pose ID>  (286) 
570489

>  <ref_mols>  (286) 
A2339a

>  <HIPPO Compound ID>  (286) 
411470

>  <tags>  (286) 
openbind_a71ev2a_c2_elabs,syndirella_product,openbind_a71ev2a_c2_elabs_scored,BulkDock Fragalysis export,openbind_a71ev2a_c2_elabs_scored_top80percent,openbind_a71ev2a_c2_elabs_scored_top80percent_despaghettified,syndirella_placed

>  <smina_score_min>  (286) 
-4.796

$$$$
P570490
     RDKit          3D

 23 27  0  0  0  0  0  0  0  0999 V2000
    9.2426    9.1004   23.5223 C   0  0  0  0  0  0  0  0  0  0  0  0
    8.7493   10.3067   24.1520 N   0  0  0  0  0  0  0  0  0  0  0  0
    9.3902   11.4640   23.9002 N   0  0  0  0  0  0  0  0  0  0  0  0
    8.8052   12.3469   24.7386 C   0  0  0  0  0  0  0  0  0  0  0  0
    9.1583   13.7575   24.7541 C   0  0  0  0  0  0  0  0  0  0  0  0
    8.8248   14.5197   25.5614 O   0  0  0  0  0  0  0  0  0  0  0  0
    9.9286   13.9615   23.4724 N   0  0  0  0  0  0  0  0  0  0  0  0
   10.3672   15.1184   22.8636 C   0  0  1  0  0  0  0  0  0  0  0  0
   10.8852   15.1131   21.4878 C   0  0  2  0  0  0  0  0  0  0  0  0
   11.6623   14.0289   20.8960 C   0  0  0  0  0  0  0  0  0  0  0  0
   12.8209   15.0105   21.0104 C   0  0  0  0  0  0  0  0  0  0  0  0
   11.7811   16.0937   20.9056 C   0  0  0  0  0  0  0  0  0  0  0  0
    9.4753   15.4133   21.6693 C   0  0  1  0  0  0  0  0  0  0  0  0
    8.2429   14.6328   21.3798 C   0  0  0  0  0  0  0  0  0  0  0  0
    7.5489   15.8907   21.9414 C   0  0  0  0  0  0  0  0  0  0  0  0
    8.7580   16.6658   21.3530 C   0  0  0  0  0  0  0  0  0  0  0  0
    7.6997   11.8017   25.3941 C   0  0  0  0  0  0  0  0  0  0  0  0
    6.7164   12.3187   26.2490 C   0  0  0  0  0  0  0  0  0  0  0  0
    5.7977   11.4389   26.7877 C   0  0  0  0  0  0  0  0  0  0  0  0
    4.8857   11.9104   27.6426 F   0  0  0  0  0  0  0  0  0  0  0  0
    5.8320   10.0881   26.4862 C   0  0  0  0  0  0  0  0  0  0  0  0
    6.7816    9.5897   25.5911 C   0  0  0  0  0  0  0  0  0  0  0  0
    7.7087   10.4625   25.0371 C   0  0  0  0  0  0  0  0  0  0  0  0
  1  2  1  0
  2  3  1  0
  3  4  2  0
  4  5  1  0
  5  6  2  0
  5  7  1  0
  8  7  1  6
  8  9  1  0
  9 10  1  6
 10 11  1  0
 11 12  1  0
  9 13  1  0
 13 14  1  6
 14 15  1  0
 15 16  1  0
  4 17  1  0
 17 18  2  0
 18 19  1  0
 19 20  1  0
 19 21  2  0
 21 22  1  0
 22 23  2  0
 23  2  1  0
 13  8  1  0
 23 17  1  0
 12  9  1  0
 16 13  1  0
M  END
>  <alias>  (287) 
None

>  <rmsd(smina/fragmenstein)>  (287) 
0.405

>  <smiles>  (287) 
Cn1nc(C(=O)N[C@H]2[C@]3(CCC3)[C@@]23CCC3)c2cc(F)ccc21

>  <gnina_score>  (287) 
5.866

>  <inspiration_score>  (287) 
None

>  <energy_score>  (287) 
-14.898835

>  <distance_score>  (287) 
1.186976

>  <gnina_score_min>  (287) 
5.752

>  <inchikey>  (287) 
XWNHTFRPDXHXFW-UHFFFAOYSA-N

>  <exports>  (287) 
['/opt/xchem-fragalysis-2/maxwin/BulkDock/OUTPUTS/openbind_a71ev2a_c2_elabs_1LOUU54.sdf', '/opt/xchem-fragalysis-2/maxwin/BulkDock/OUTPUTS/openbind_a71ev2a_c2_elabs_1LSYIDY.sdf']

>  <name>  (287) 
P570490

>  <ref_pdb>  (287) 
A2339a

>  <subsites>  (287) 
None

>  <HIPPO Pose ID>  (287) 
570490

>  <ref_mols>  (287) 
A2339a

>  <HIPPO Compound ID>  (287) 
411474

>  <tags>  (287) 
openbind_a71ev2a_c2_elabs,syndirella_product,openbind_a71ev2a_c2_elabs_scored,BulkDock Fragalysis export,openbind_a71ev2a_c2_elabs_scored_top80percent,openbind_a71ev2a_c2_elabs_scored_top80percent_despaghettified,syndirella_placed

>  <smina_score_min>  (287) 
-5.874

$$$$
P570491
     RDKit          3D

 23 26  0  0  0  0  0  0  0  0999 V2000
    9.2882    9.1837   23.5329 C   0  0  0  0  0  0  0  0  0  0  0  0
    8.7046   10.4202   24.0146 N   0  0  0  0  0  0  0  0  0  0  0  0
    9.1380   11.5853   23.4966 N   0  0  0  0  0  0  0  0  0  0  0  0
    8.3400   12.5209   24.0677 C   0  0  0  0  0  0  0  0  0  0  0  0
    8.2894   13.8840   23.5244 C   0  0  0  0  0  0  0  0  0  0  0  0
    7.6391   14.7531   23.9332 O   0  0  0  0  0  0  0  0  0  0  0  0
    9.1806   13.8134   22.3016 N   0  0  0  0  0  0  0  0  0  0  0  0
    9.5240   14.7593   21.4181 C   0  0  0  0  0  0  0  0  0  0  0  0
    8.9640   15.8692   21.0123 N   0  0  0  0  0  0  0  0  0  0  0  0
    9.6455   16.2668   19.8623 N   0  0  0  0  0  0  0  0  0  0  0  0
   10.6070   15.3990   19.6676 C   0  0  0  0  0  0  0  0  0  0  0  0
   11.6419   15.1911   18.3386 S   0  0  0  0  0  0  0  0  0  0  0  0
   10.6764   14.5793   20.7322 N   0  0  0  0  0  0  0  0  0  0  0  0
   11.9248   14.1686   21.3930 C   0  0  0  0  0  0  0  0  0  0  0  0
   12.7124   15.2968   21.9855 C   0  0  0  0  0  0  0  0  0  0  0  0
   12.1819   14.2210   22.8825 C   0  0  0  0  0  0  0  0  0  0  0  0
    7.5261   11.9716   25.0639 C   0  0  0  0  0  0  0  0  0  0  0  0
    6.5858   12.4898   25.9633 C   0  0  0  0  0  0  0  0  0  0  0  0
    5.8467   11.5945   26.7189 C   0  0  0  0  0  0  0  0  0  0  0  0
    4.9732   12.0746   27.6091 F   0  0  0  0  0  0  0  0  0  0  0  0
    5.9849   10.2232   26.5645 C   0  0  0  0  0  0  0  0  0  0  0  0
    6.9129    9.7045   25.6588 C   0  0  0  0  0  0  0  0  0  0  0  0
    7.7065   10.5964   24.9424 C   0  0  0  0  0  0  0  0  0  0  0  0
  1  2  1  0
  2  3  1  0
  3  4  2  0
  4  5  1  0
  5  6  2  0
  5  7  1  0
  7  8  1  0
  8  9  2  0
  9 10  1  0
 10 11  2  0
 11 12  1  0
 11 13  1  0
 13 14  1  0
 14 15  1  0
 15 16  1  0
  4 17  1  0
 17 18  2  0
 18 19  1  0
 19 20  1  0
 19 21  2  0
 21 22  1  0
 22 23  2  0
 23  2  1  0
 13  8  1  0
 16 14  1  0
 23 17  1  0
M  END
>  <alias>  (288) 
None

>  <rmsd(smina/fragmenstein)>  (288) 
0.898

>  <smiles>  (288) 
Cn1nc(C(=O)Nc2nnc(S)n2C2CC2)c2cc(F)ccc21

>  <gnina_score>  (288) 
6.186

>  <inspiration_score>  (288) 
None

>  <energy_score>  (288) 
-24.063993

>  <distance_score>  (288) 
1.192355

>  <gnina_score_min>  (288) 
6.019

>  <inchikey>  (288) 
IBBBFRNTXFSTKL-UHFFFAOYSA-N

>  <exports>  (288) 
['/opt/xchem-fragalysis-2/maxwin/BulkDock/OUTPUTS/openbind_a71ev2a_c2_elabs_1LOUU54.sdf', '/opt/xchem-fragalysis-2/maxwin/BulkDock/OUTPUTS/openbind_a71ev2a_c2_elabs_1LSYIDY.sdf']

>  <name>  (288) 
P570491

>  <ref_pdb>  (288) 
A2339a

>  <subsites>  (288) 
None

>  <HIPPO Pose ID>  (288) 
570491

>  <ref_mols>  (288) 
A2339a

>  <HIPPO Compound ID>  (288) 
411475

>  <tags>  (288) 
openbind_a71ev2a_c2_elabs,syndirella_product,openbind_a71ev2a_c2_elabs_scored,BulkDock Fragalysis export,openbind_a71ev2a_c2_elabs_scored_top80percent,openbind_a71ev2a_c2_elabs_scored_6plus,openbind_a71ev2a_c2_elabs_scored_top80percent_despaghettified,syndirella_placed

>  <smina_score_min>  (288) 
-6.869

$$$$
P570493
     RDKit          3D

 23 26  0  0  0  0  0  0  0  0999 V2000
    9.2097    9.0083   23.5380 C   0  0  0  0  0  0  0  0  0  0  0  0
    8.5694   10.2255   23.9886 N   0  0  0  0  0  0  0  0  0  0  0  0
    9.0626   11.4030   23.5619 N   0  0  0  0  0  0  0  0  0  0  0  0
    8.2644   12.3122   24.1514 C   0  0  0  0  0  0  0  0  0  0  0  0
    8.5740   13.7165   24.1729 C   0  0  0  0  0  0  0  0  0  0  0  0
    7.7946   14.5718   24.1228 O   0  0  0  0  0  0  0  0  0  0  0  0
   10.0724   13.7642   24.3713 N   0  0  0  0  0  0  0  0  0  0  0  0
   10.9413   14.8507   24.4567 C   0  0  0  0  0  0  0  0  0  0  0  0
   11.3207   15.2910   23.0785 C   0  0  1  0  0  0  0  0  0  0  0  0
   12.3914   14.3996   22.4905 C   0  0  0  0  0  0  0  0  0  0  0  0
   12.4665   14.8915   21.0691 C   0  0  0  0  0  0  0  0  0  0  0  0
   11.3179   15.7900   20.9669 N   0  0  0  0  0  0  0  0  0  0  0  0
   10.7914   16.0701   19.6680 C   0  0  0  0  0  0  0  0  0  0  0  0
   10.1421   14.9968   18.9281 C   0  0  0  0  0  0  0  0  0  0  0  0
   11.4521   15.5010   18.4433 C   0  0  0  0  0  0  0  0  0  0  0  0
   10.3293   15.3777   21.9527 C   0  0  0  0  0  0  0  0  0  0  0  0
    7.3382   11.7478   25.0205 C   0  0  0  0  0  0  0  0  0  0  0  0
    6.4272   12.2728   25.9472 C   0  0  0  0  0  0  0  0  0  0  0  0
    5.7131   11.3834   26.7239 C   0  0  0  0  0  0  0  0  0  0  0  0
    4.8748   11.8671   27.6452 F   0  0  0  0  0  0  0  0  0  0  0  0
    5.8681   10.0161   26.5748 C   0  0  0  0  0  0  0  0  0  0  0  0
    6.7852    9.5069   25.6498 C   0  0  0  0  0  0  0  0  0  0  0  0
    7.5487   10.3862   24.8996 C   0  0  0  0  0  0  0  0  0  0  0  0
  1  2  1  0
  2  3  1  0
  3  4  2  0
  4  5  1  0
  5  6  2  0
  5  7  1  0
  7  8  1  0
  9  8  1  1
  9 10  1  0
 10 11  1  0
 11 12  1  0
 12 13  1  0
 13 14  1  0
 14 15  1  0
 12 16  1  0
  4 17  1  0
 17 18  2  0
 18 19  1  0
 19 20  1  0
 19 21  2  0
 21 22  1  0
 22 23  2  0
 23  2  1  0
 16  9  1  0
 23 17  1  0
 15 13  1  0
M  END
>  <alias>  (289) 
None

>  <rmsd(smina/fragmenstein)>  (289) 
1.076

>  <smiles>  (289) 
Cn1nc(C(=O)NC[C@H]2CCN(C3CC3)C2)c2cc(F)ccc21

>  <gnina_score>  (289) 
5.781

>  <inspiration_score>  (289) 
None

>  <energy_score>  (289) 
-11.438914

>  <distance_score>  (289) 
1.464783

>  <gnina_score_min>  (289) 
5.474

>  <inchikey>  (289) 
ACSXUODXKQUQCU-LLVKDONJSA-N

>  <exports>  (289) 
['/opt/xchem-fragalysis-2/maxwin/BulkDock/OUTPUTS/openbind_a71ev2a_c2_elabs_1LOUU54.sdf', '/opt/xchem-fragalysis-2/maxwin/BulkDock/OUTPUTS/openbind_a71ev2a_c2_elabs_1LSYIDY.sdf']

>  <name>  (289) 
P570493

>  <ref_pdb>  (289) 
A2339a

>  <subsites>  (289) 
None

>  <HIPPO Pose ID>  (289) 
570493

>  <ref_mols>  (289) 
A2339a

>  <HIPPO Compound ID>  (289) 
411476

>  <tags>  (289) 
openbind_a71ev2a_c2_elabs,syndirella_product,openbind_a71ev2a_c2_elabs_scored,BulkDock Fragalysis export,openbind_a71ev2a_c2_elabs_scored_top80percent,openbind_a71ev2a_c2_elabs_scored_top80percent_despaghettified,syndirella_placed

>  <smina_score_min>  (289) 
-6.476

$$$$
P570494
     RDKit          3D

 23 25  0  0  0  0  0  0  0  0999 V2000
    9.1782    9.0269   23.5461 C   0  0  0  0  0  0  0  0  0  0  0  0
    8.6225   10.2833   24.0034 N   0  0  0  0  0  0  0  0  0  0  0  0
    9.2009   11.4224   23.5864 N   0  0  0  0  0  0  0  0  0  0  0  0
    8.5757   12.3900   24.2949 C   0  0  0  0  0  0  0  0  0  0  0  0
    9.1099   13.7497   24.3393 C   0  0  0  0  0  0  0  0  0  0  0  0
    8.6293   14.6316   24.9184 O   0  0  0  0  0  0  0  0  0  0  0  0
   10.4128   13.6712   23.5738 N   0  0  0  0  0  0  0  0  0  0  0  0
   11.4525   14.6192   23.4273 C   0  0  0  0  0  0  0  0  0  0  0  0
   12.5340   14.0544   22.5521 C   0  0  0  0  0  0  0  0  0  0  0  0
   12.4783   14.7055   20.9384 S   0  0  0  0  0  0  0  0  0  0  0  0
   12.8450   16.0907   21.0590 O   0  0  0  0  0  0  0  0  0  0  0  0
   12.9993   13.8150   19.9324 O   0  0  0  0  0  0  0  0  0  0  0  0
   10.8762   14.5621   20.6259 N   0  0  0  0  0  0  0  0  0  0  0  0
   10.5548   15.5346   19.6263 C   0  0  0  0  0  0  0  0  0  0  0  0
    9.6867   16.6941   19.9709 C   0  0  0  0  0  0  0  0  0  0  0  0
    9.1711   15.4790   19.2348 C   0  0  0  0  0  0  0  0  0  0  0  0
    7.5454   11.8809   25.0907 C   0  0  0  0  0  0  0  0  0  0  0  0
    6.6419   12.4412   26.0045 C   0  0  0  0  0  0  0  0  0  0  0  0
    5.8200   11.5849   26.7164 C   0  0  0  0  0  0  0  0  0  0  0  0
    4.9822   12.1021   27.6202 F   0  0  0  0  0  0  0  0  0  0  0  0
    5.8726   10.2122   26.5356 C   0  0  0  0  0  0  0  0  0  0  0  0
    6.7678    9.6556   25.6199 C   0  0  0  0  0  0  0  0  0  0  0  0
    7.6126   10.5040   24.9109 C   0  0  0  0  0  0  0  0  0  0  0  0
  1  2  1  0
  2  3  1  0
  3  4  2  0
  4  5  1  0
  5  6  2  0
  5  7  1  0
  7  8  1  0
  8  9  1  0
  9 10  1  0
 10 11  2  0
 10 12  2  0
 10 13  1  0
 13 14  1  0
 14 15  1  0
 15 16  1  0
  4 17  1  0
 17 18  2  0
 18 19  1  0
 19 20  1  0
 19 21  2  0
 21 22  1  0
 22 23  2  0
 23  2  1  0
 16 14  1  0
 23 17  1  0
M  END
>  <alias>  (290) 
None

>  <rmsd(smina/fragmenstein)>  (290) 
0.742

>  <smiles>  (290) 
Cn1nc(C(=O)NCCS(=O)(=O)NC2CC2)c2cc(F)ccc21

>  <gnina_score>  (290) 
5.886

>  <inspiration_score>  (290) 
None

>  <energy_score>  (290) 
-16.528864

>  <distance_score>  (290) 
1.177436

>  <gnina_score_min>  (290) 
5.892

>  <inchikey>  (290) 
NPGCPWWDIWEBIU-UHFFFAOYSA-N

>  <exports>  (290) 
['/opt/xchem-fragalysis-2/maxwin/BulkDock/OUTPUTS/openbind_a71ev2a_c2_elabs_1LOUU54.sdf', '/opt/xchem-fragalysis-2/maxwin/BulkDock/OUTPUTS/openbind_a71ev2a_c2_elabs_1LSYIDY.sdf']

>  <name>  (290) 
P570494

>  <ref_pdb>  (290) 
A2339a

>  <subsites>  (290) 
None

>  <HIPPO Pose ID>  (290) 
570494

>  <ref_mols>  (290) 
A2339a

>  <HIPPO Compound ID>  (290) 
411478

>  <tags>  (290) 
openbind_a71ev2a_c2_elabs,syndirella_product,openbind_a71ev2a_c2_elabs_scored,BulkDock Fragalysis export,openbind_a71ev2a_c2_elabs_scored_top80percent,openbind_a71ev2a_c2_elabs_scored_top80percent_despaghettified,syndirella_placed

>  <smina_score_min>  (290) 
-6.302

$$$$
P570495
     RDKit          3D

 23 26  0  0  0  0  0  0  0  0999 V2000
    9.5099    9.1813   23.2509 C   0  0  0  0  0  0  0  0  0  0  0  0
    9.0525   10.3800   23.9235 N   0  0  0  0  0  0  0  0  0  0  0  0
    9.6386   11.5637   23.6321 N   0  0  0  0  0  0  0  0  0  0  0  0
    9.0552   12.4385   24.4766 C   0  0  0  0  0  0  0  0  0  0  0  0
    9.0861   13.8856   24.2985 C   0  0  0  0  0  0  0  0  0  0  0  0
    9.0165   14.6690   25.1539 O   0  0  0  0  0  0  0  0  0  0  0  0
    9.1223   14.0716   22.7923 N   0  0  0  0  0  0  0  0  0  0  0  0
    8.9890   15.2243   22.0161 C   0  0  0  0  0  0  0  0  0  0  0  0
   10.1586   15.7212   21.1885 C   0  0  0  0  0  0  0  0  0  0  0  0
   10.1957   14.9633   19.8600 C   0  0  0  0  0  0  0  0  0  0  0  0
   11.5435   14.8997   19.2171 C   0  0  0  0  0  0  0  0  0  0  0  0
   12.5784   14.3577   20.1789 C   0  0  0  0  0  0  0  0  0  0  0  0
   12.1891   14.3617   21.6528 C   0  0  0  0  0  0  0  0  0  0  0  0
   11.4521   15.6346   21.9827 C   0  0  0  0  0  0  0  0  0  0  0  0
    7.8636   16.2015   22.1323 C   0  0  0  0  0  0  0  0  0  0  0  0
    7.6648   14.9909   21.3198 C   0  0  0  0  0  0  0  0  0  0  0  0
    8.0016   11.8376   25.1998 C   0  0  0  0  0  0  0  0  0  0  0  0
    6.9876   12.3226   26.0445 C   0  0  0  0  0  0  0  0  0  0  0  0
    6.0741   11.4195   26.5622 C   0  0  0  0  0  0  0  0  0  0  0  0
    5.1342   11.8663   27.4025 F   0  0  0  0  0  0  0  0  0  0  0  0
    6.1394   10.0705   26.2497 C   0  0  0  0  0  0  0  0  0  0  0  0
    7.1212    9.5956   25.3740 C   0  0  0  0  0  0  0  0  0  0  0  0
    8.0300   10.5018   24.8351 C   0  0  0  0  0  0  0  0  0  0  0  0
  1  2  1  0
  2  3  1  0
  3  4  2  0
  4  5  1  0
  5  6  2  0
  5  7  1  0
  7  8  1  0
  8  9  1  0
  9 10  1  0
 10 11  1  0
 11 12  1  0
 12 13  1  0
 13 14  1  0
  8 15  1  0
 15 16  1  0
  4 17  1  0
 17 18  2  0
 18 19  1  0
 19 20  1  0
 19 21  2  0
 21 22  1  0
 22 23  2  0
 23  2  1  0
 16  8  1  0
 23 17  1  0
 14  9  1  0
M  END
>  <alias>  (291) 
None

>  <rmsd(smina/fragmenstein)>  (291) 
0.567

>  <smiles>  (291) 
Cn1nc(C(=O)NC2(C3CCCCC3)CC2)c2cc(F)ccc21

>  <gnina_score>  (291) 
5.878

>  <inspiration_score>  (291) 
None

>  <energy_score>  (291) 
-12.516427

>  <distance_score>  (291) 
1.664054

>  <gnina_score_min>  (291) 
6.063

>  <inchikey>  (291) 
LPNJNMFDPKFETG-UHFFFAOYSA-N

>  <exports>  (291) 
['/opt/xchem-fragalysis-2/maxwin/BulkDock/OUTPUTS/openbind_a71ev2a_c2_elabs_1LOUU54.sdf', '/opt/xchem-fragalysis-2/maxwin/BulkDock/OUTPUTS/openbind_a71ev2a_c2_elabs_1LSYIDY.sdf']

>  <name>  (291) 
P570495

>  <ref_pdb>  (291) 
A2339a

>  <subsites>  (291) 
None

>  <HIPPO Pose ID>  (291) 
570495

>  <ref_mols>  (291) 
A2339a

>  <HIPPO Compound ID>  (291) 
411480

>  <tags>  (291) 
openbind_a71ev2a_c2_elabs,syndirella_product,openbind_a71ev2a_c2_elabs_scored,BulkDock Fragalysis export,openbind_a71ev2a_c2_elabs_scored_top80percent,openbind_a71ev2a_c2_elabs_scored_6plus,openbind_a71ev2a_c2_elabs_scored_top80percent_despaghettified,syndirella_placed

>  <smina_score_min>  (291) 
-7.12

$$$$
P570496
     RDKit          3D

 23 26  0  0  0  0  0  0  0  0999 V2000
   11.0834   14.9571   26.3301 C   0  0  0  0  0  0  0  0  0  0  0  0
   11.3694   14.7312   24.8880 C   0  0  0  0  0  0  0  0  0  0  0  0
   10.9777   15.5846   23.9778 N   0  0  0  0  0  0  0  0  0  0  0  0
   11.1014   15.0159   22.7314 C   0  0  0  0  0  0  0  0  0  0  0  0
    9.7687   14.9241   21.9067 C   0  0  0  0  0  0  0  0  0  0  0  0
    9.0624   13.9072   22.5734 N   0  0  0  0  0  0  0  0  0  0  0  0
    8.2359   13.9488   23.7343 C   0  0  0  0  0  0  0  0  0  0  0  0
    7.8607   14.8722   24.3953 O   0  0  0  0  0  0  0  0  0  0  0  0
    7.9468   12.5614   24.1288 C   0  0  0  0  0  0  0  0  0  0  0  0
    8.6277   11.5512   23.5434 N   0  0  0  0  0  0  0  0  0  0  0  0
    8.2287   10.4496   24.2018 N   0  0  0  0  0  0  0  0  0  0  0  0
    8.8228    9.1806   23.8415 C   0  0  0  0  0  0  0  0  0  0  0  0
    7.2726   10.7074   25.1540 C   0  0  0  0  0  0  0  0  0  0  0  0
    6.5111    9.8788   25.9810 C   0  0  0  0  0  0  0  0  0  0  0  0
    5.6596   10.4768   26.9116 C   0  0  0  0  0  0  0  0  0  0  0  0
    5.5553   11.8583   26.9812 C   0  0  0  0  0  0  0  0  0  0  0  0
    4.7321   12.4039   27.8849 F   0  0  0  0  0  0  0  0  0  0  0  0
    6.2696   12.6880   26.1235 C   0  0  0  0  0  0  0  0  0  0  0  0
    7.1283   12.0942   25.1810 C   0  0  0  0  0  0  0  0  0  0  0  0
    9.7451   15.1190   20.4317 C   0  0  0  0  0  0  0  0  0  0  0  0
    9.1607   16.1620   21.3347 C   0  0  0  0  0  0  0  0  0  0  0  0
   11.9971   13.9654   22.6593 C   0  0  0  0  0  0  0  0  0  0  0  0
   12.2450   13.3826   24.2704 S   0  0  0  0  0  0  0  0  0  0  0  0
  1  2  1  0
  2  3  2  0
  3  4  1  0
  4  5  1  0
  5  6  1  0
  6  7  1  0
  7  8  2  0
  7  9  1  0
  9 10  2  0
 10 11  1  0
 11 12  1  0
 11 13  1  0
 13 14  2  0
 14 15  1  0
 15 16  2  0
 16 17  1  0
 16 18  1  0
 18 19  2  0
  5 20  1  0
 20 21  1  0
  4 22  2  0
 22 23  1  0
 23  2  1  0
 21  5  1  0
 19  9  1  0
 19 13  1  0
M  END
>  <alias>  (292) 
None

>  <rmsd(smina/fragmenstein)>  (292) 
0.281

>  <smiles>  (292) 
Cc1nc(C2(NC(=O)c3nn(C)c4ccc(F)cc34)CC2)cs1

>  <gnina_score>  (292) 
5.966

>  <inspiration_score>  (292) 
None

>  <energy_score>  (292) 
-76.247507

>  <distance_score>  (292) 
1.46342

>  <gnina_score_min>  (292) 
5.877

>  <inchikey>  (292) 
CLBCIDRNJAASTM-UHFFFAOYSA-N

>  <exports>  (292) 
['/opt/xchem-fragalysis-2/maxwin/BulkDock/OUTPUTS/openbind_a71ev2a_c2_elabs_1LOUU54.sdf', '/opt/xchem-fragalysis-2/maxwin/BulkDock/OUTPUTS/openbind_a71ev2a_c2_elabs_1LSYIDY.sdf']

>  <name>  (292) 
P570496

>  <ref_pdb>  (292) 
A2339a

>  <subsites>  (292) 
None

>  <HIPPO Pose ID>  (292) 
570496

>  <ref_mols>  (292) 
A2339a

>  <HIPPO Compound ID>  (292) 
411481

>  <tags>  (292) 
openbind_a71ev2a_c2_elabs,syndirella_product,openbind_a71ev2a_c2_elabs_scored,BulkDock Fragalysis export,openbind_a71ev2a_c2_elabs_scored_top80percent,openbind_a71ev2a_c2_elabs_scored_top80percent_despaghettified,syndirella_placed

>  <smina_score_min>  (292) 
-6.42

$$$$
P570504
     RDKit          3D

 23 26  0  0  0  0  0  0  0  0999 V2000
    8.8907   18.9152   21.0016 C   0  0  0  0  0  0  0  0  0  0  0  0
    8.8283   18.5516   19.5746 C   0  0  0  0  0  0  0  0  0  0  0  0
    9.3452   17.2912   19.1868 O   0  0  0  0  0  0  0  0  0  0  0  0
   10.3680   16.4761   19.7466 C   0  0  1  0  0  0  0  0  0  0  0  0
   10.7814   16.5689   21.2186 C   0  0  0  0  0  0  0  0  0  0  0  0
   11.1396   15.1652   21.0528 C   0  0  1  0  0  0  0  0  0  0  0  0
   12.4427   14.4917   20.8749 C   0  0  0  0  0  0  0  0  0  0  0  0
   11.7075   14.3720   22.1667 C   0  0  2  0  0  0  0  0  0  0  0  0
   10.8386   13.4074   22.6509 N   0  0  0  0  0  0  0  0  0  0  0  0
    9.7810   13.4845   23.7620 C   0  0  0  0  0  0  0  0  0  0  0  0
    9.4166   14.3915   24.3968 O   0  0  0  0  0  0  0  0  0  0  0  0
    9.1881   12.1612   23.9133 C   0  0  0  0  0  0  0  0  0  0  0  0
    9.6883   11.1082   23.2471 N   0  0  0  0  0  0  0  0  0  0  0  0
    8.9815   10.0627   23.6980 N   0  0  0  0  0  0  0  0  0  0  0  0
    9.2904    8.7589   23.1612 C   0  0  0  0  0  0  0  0  0  0  0  0
    8.0222   10.4144   24.6192 C   0  0  0  0  0  0  0  0  0  0  0  0
    7.0972    9.6762   25.3582 C   0  0  0  0  0  0  0  0  0  0  0  0
    6.2298   10.3544   26.2171 C   0  0  0  0  0  0  0  0  0  0  0  0
    6.2934   11.7349   26.3265 C   0  0  0  0  0  0  0  0  0  0  0  0
    5.4741   12.3609   27.1811 F   0  0  0  0  0  0  0  0  0  0  0  0
    7.2179   12.4780   25.6002 C   0  0  0  0  0  0  0  0  0  0  0  0
    8.1033   11.7974   24.7424 C   0  0  0  0  0  0  0  0  0  0  0  0
   10.0426   14.9975   20.0756 C   0  0  0  0  0  0  0  0  0  0  0  0
  1  2  1  0
  2  3  1  0
  4  3  1  1
  4  5  1  0
  6  5  1  1
  6  7  1  0
  7  8  1  0
  8  9  1  6
  9 10  1  0
 10 11  2  0
 10 12  1  0
 12 13  2  0
 13 14  1  0
 14 15  1  0
 14 16  1  0
 16 17  2  0
 17 18  1  0
 18 19  2  0
 19 20  1  0
 19 21  1  0
 21 22  2  0
  6 23  1  0
 23  4  1  0
  8  6  1  0
 22 12  1  0
 22 16  1  0
M  END
>  <alias>  (293) 
None

>  <rmsd(smina/fragmenstein)>  (293) 
0.314

>  <smiles>  (293) 
CCO[C@H]1C[C@]2(C[C@@H]2NC(=O)c2nn(C)c3ccc(F)cc23)C1

>  <gnina_score>  (293) 
5.893

>  <inspiration_score>  (293) 
None

>  <energy_score>  (293) 
-1.004504

>  <distance_score>  (293) 
0.42768

>  <gnina_score_min>  (293) 
5.825

>  <inchikey>  (293) 
DNBPYSABLZKJJX-PZSREKOKSA-N

>  <exports>  (293) 
['/opt/xchem-fragalysis-2/maxwin/BulkDock/OUTPUTS/openbind_a71ev2a_c2_elabs_1LOUU54.sdf', '/opt/xchem-fragalysis-2/maxwin/BulkDock/OUTPUTS/openbind_a71ev2a_c2_elabs_1LSYIDY.sdf']

>  <name>  (293) 
P570504

>  <ref_pdb>  (293) 
A2339a

>  <subsites>  (293) 
None

>  <HIPPO Pose ID>  (293) 
570504

>  <ref_mols>  (293) 
A2339a

>  <HIPPO Compound ID>  (293) 
411483

>  <tags>  (293) 
openbind_a71ev2a_c2_elabs,syndirella_product,openbind_a71ev2a_c2_elabs_scored,BulkDock Fragalysis export,openbind_a71ev2a_c2_elabs_scored_top80percent,openbind_a71ev2a_c2_elabs_scored_top80percent_despaghettified,syndirella_placed

>  <smina_score_min>  (293) 
-5.056

$$$$
P570506
     RDKit          3D

 23 26  0  0  0  0  0  0  0  0999 V2000
   11.1675   14.9833   26.5007 C   0  0  0  0  0  0  0  0  0  0  0  0
   11.4579   14.6829   25.1193 N   0  0  0  0  0  0  0  0  0  0  0  0
   12.2301   13.7003   24.5631 C   0  0  0  0  0  0  0  0  0  0  0  0
   12.1202   13.8550   23.1971 C   0  0  0  0  0  0  0  0  0  0  0  0
   11.1991   14.9148   23.0467 C   0  0  0  0  0  0  0  0  0  0  0  0
   10.0280   14.7659   22.0237 C   0  0  0  0  0  0  0  0  0  0  0  0
    9.2574   13.7590   22.6248 N   0  0  0  0  0  0  0  0  0  0  0  0
    8.3215   13.8139   23.6980 C   0  0  0  0  0  0  0  0  0  0  0  0
    7.8866   14.7439   24.3104 O   0  0  0  0  0  0  0  0  0  0  0  0
    7.9877   12.4390   24.0799 C   0  0  0  0  0  0  0  0  0  0  0  0
    8.6623   11.4097   23.5231 N   0  0  0  0  0  0  0  0  0  0  0  0
    8.2288   10.3287   24.1905 N   0  0  0  0  0  0  0  0  0  0  0  0
    8.7978    9.0459   23.8460 C   0  0  0  0  0  0  0  0  0  0  0  0
    7.2734   10.6200   25.1334 C   0  0  0  0  0  0  0  0  0  0  0  0
    6.4932    9.8250   25.9742 C   0  0  0  0  0  0  0  0  0  0  0  0
    5.6531   10.4550   26.8941 C   0  0  0  0  0  0  0  0  0  0  0  0
    5.5744   11.8385   26.9382 C   0  0  0  0  0  0  0  0  0  0  0  0
    4.7640   12.4166   27.8330 F   0  0  0  0  0  0  0  0  0  0  0  0
    6.3037   12.6362   26.0641 C   0  0  0  0  0  0  0  0  0  0  0  0
    7.1515   12.0077   25.1331 C   0  0  0  0  0  0  0  0  0  0  0  0
    9.4720   15.9214   21.2649 C   0  0  0  0  0  0  0  0  0  0  0  0
   10.3082   14.8888   20.5661 C   0  0  0  0  0  0  0  0  0  0  0  0
   10.9486   15.5099   24.2126 N   0  0  0  0  0  0  0  0  0  0  0  0
  1  2  1  0
  2  3  1  0
  3  4  2  0
  4  5  1  0
  5  6  1  0
  6  7  1  0
  7  8  1  0
  8  9  2  0
  8 10  1  0
 10 11  2  0
 11 12  1  0
 12 13  1  0
 12 14  1  0
 14 15  2  0
 15 16  1  0
 16 17  2  0
 17 18  1  0
 17 19  1  0
 19 20  2  0
  6 21  1  0
 21 22  1  0
  5 23  2  0
 23  2  1  0
 22  6  1  0
 20 10  1  0
 20 14  1  0
M  END
>  <alias>  (294) 
None

>  <rmsd(smina/fragmenstein)>  (294) 
0.461

>  <smiles>  (294) 
Cn1ccc(C2(NC(=O)c3nn(C)c4ccc(F)cc34)CC2)n1

>  <gnina_score>  (294) 
5.845

>  <inspiration_score>  (294) 
None

>  <energy_score>  (294) 
-23.103778

>  <distance_score>  (294) 
1.320927

>  <gnina_score_min>  (294) 
5.623

>  <inchikey>  (294) 
UFAYIKIHUMKEBM-UHFFFAOYSA-N

>  <exports>  (294) 
['/opt/xchem-fragalysis-2/maxwin/BulkDock/OUTPUTS/openbind_a71ev2a_c2_elabs_1LOUU54.sdf', '/opt/xchem-fragalysis-2/maxwin/BulkDock/OUTPUTS/openbind_a71ev2a_c2_elabs_1LSYIDY.sdf']

>  <name>  (294) 
P570506

>  <ref_pdb>  (294) 
A2339a

>  <subsites>  (294) 
None

>  <HIPPO Pose ID>  (294) 
570506

>  <ref_mols>  (294) 
A2339a

>  <HIPPO Compound ID>  (294) 
411485

>  <tags>  (294) 
openbind_a71ev2a_c2_elabs,syndirella_product,openbind_a71ev2a_c2_elabs_scored,BulkDock Fragalysis export,openbind_a71ev2a_c2_elabs_scored_top80percent,openbind_a71ev2a_c2_elabs_scored_top80percent_despaghettified,syndirella_placed

>  <smina_score_min>  (294) 
-6.074

$$$$
P570507
     RDKit          3D

 23 26  0  0  0  0  0  0  0  0999 V2000
   12.0331   12.9560   22.2380 C   0  0  0  0  0  0  0  0  0  0  0  0
   12.2242   14.3760   22.6839 C   0  0  1  0  0  0  0  0  0  0  0  0
   12.4494   15.2353   21.4572 C   0  0  0  0  0  0  0  0  0  0  0  0
   11.2083   15.9602   21.2934 N   0  0  0  0  0  0  0  0  0  0  0  0
   10.7784   16.0842   19.9220 C   0  0  0  0  0  0  0  0  0  0  0  0
    9.6614   17.0779   19.7832 C   0  0  0  0  0  0  0  0  0  0  0  0
    9.4927   15.6430   19.3571 C   0  0  0  0  0  0  0  0  0  0  0  0
   10.1960   15.3838   22.1493 C   0  0  0  0  0  0  0  0  0  0  0  0
   10.9513   14.8855   23.3541 C   0  0  1  0  0  0  0  0  0  0  0  0
   10.1491   13.8384   23.8980 N   0  0  0  0  0  0  0  0  0  0  0  0
    8.8638   13.8944   24.6838 C   0  0  0  0  0  0  0  0  0  0  0  0
    8.2716   14.8017   25.0935 O   0  0  0  0  0  0  0  0  0  0  0  0
    8.4518   12.4871   24.7377 C   0  0  0  0  0  0  0  0  0  0  0  0
    9.1078   11.5533   24.0045 N   0  0  0  0  0  0  0  0  0  0  0  0
    8.4869   10.3987   24.2912 N   0  0  0  0  0  0  0  0  0  0  0  0
    9.0159    9.1718   23.7298 C   0  0  0  0  0  0  0  0  0  0  0  0
    7.4532   10.5696   25.1791 C   0  0  0  0  0  0  0  0  0  0  0  0
    6.5611    9.6880   25.7780 C   0  0  0  0  0  0  0  0  0  0  0  0
    5.6492   10.1955   26.7036 C   0  0  0  0  0  0  0  0  0  0  0  0
    5.6030   11.5549   26.9703 C   0  0  0  0  0  0  0  0  0  0  0  0
    4.7271   12.0279   27.8604 F   0  0  0  0  0  0  0  0  0  0  0  0
    6.4571   12.4481   26.3523 C   0  0  0  0  0  0  0  0  0  0  0  0
    7.4029   11.9313   25.4631 C   0  0  0  0  0  0  0  0  0  0  0  0
  2  1  1  6
  2  3  1  0
  3  4  1  0
  4  5  1  0
  5  6  1  0
  6  7  1  0
  4  8  1  0
  8  9  1  0
  9 10  1  6
 10 11  1  0
 11 12  2  0
 11 13  1  0
 13 14  2  0
 14 15  1  0
 15 16  1  0
 15 17  1  0
 17 18  2  0
 18 19  1  0
 19 20  2  0
 20 21  1  0
 20 22  1  0
 22 23  2  0
  9  2  1  0
 23 13  1  0
  7  5  1  0
 23 17  1  0
M  END
>  <alias>  (295) 
None

>  <rmsd(smina/fragmenstein)>  (295) 
0.921

>  <smiles>  (295) 
C[C@H]1CN(C2CC2)C[C@H]1NC(=O)c1nn(C)c2ccc(F)cc12

>  <gnina_score>  (295) 
5.887

>  <inspiration_score>  (295) 
None

>  <energy_score>  (295) 
-4.215792

>  <distance_score>  (295) 
1.407486

>  <gnina_score_min>  (295) 
5.63

>  <inchikey>  (295) 
UIXMFUSKIVNSIE-IINYFYTJSA-N

>  <exports>  (295) 
['/opt/xchem-fragalysis-2/maxwin/BulkDock/OUTPUTS/openbind_a71ev2a_c2_elabs_1LOUU54.sdf', '/opt/xchem-fragalysis-2/maxwin/BulkDock/OUTPUTS/openbind_a71ev2a_c2_elabs_1LSYIDY.sdf']

>  <name>  (295) 
P570507

>  <ref_pdb>  (295) 
A2339a

>  <subsites>  (295) 
None

>  <HIPPO Pose ID>  (295) 
570507

>  <ref_mols>  (295) 
A2339a

>  <HIPPO Compound ID>  (295) 
411488

>  <tags>  (295) 
openbind_a71ev2a_c2_elabs,syndirella_product,openbind_a71ev2a_c2_elabs_scored,BulkDock Fragalysis export,openbind_a71ev2a_c2_elabs_scored_top80percent,openbind_a71ev2a_c2_elabs_scored_top80percent_despaghettified,syndirella_placed

>  <smina_score_min>  (295) 
-6.723

$$$$
P570510
     RDKit          3D

 23 26  0  0  0  0  0  0  0  0999 V2000
    8.8578    9.1840   23.8209 C   0  0  0  0  0  0  0  0  0  0  0  0
    8.3089   10.4744   24.1718 N   0  0  0  0  0  0  0  0  0  0  0  0
    8.7268   11.5482   23.4872 N   0  0  0  0  0  0  0  0  0  0  0  0
    8.0779   12.5921   24.0444 C   0  0  0  0  0  0  0  0  0  0  0  0
    8.2643   13.9832   23.5606 C   0  0  0  0  0  0  0  0  0  0  0  0
    8.2375   14.8890   24.3569 O   0  0  0  0  0  0  0  0  0  0  0  0
    8.5509   13.9862   22.1460 N   0  0  0  0  0  0  0  0  0  0  0  0
   10.0824   13.7554   21.8939 C   0  0  0  0  0  0  0  0  0  0  0  0
   11.0553   13.8607   23.0099 C   0  0  0  0  0  0  0  0  0  0  0  0
   12.2858   13.2593   22.9010 C   0  0  0  0  0  0  0  0  0  0  0  0
   12.8760   13.0507   24.4685 S   0  0  0  0  0  0  0  0  0  0  0  0
   11.7091   14.0528   25.1271 N   0  0  0  0  0  0  0  0  0  0  0  0
   10.8092   14.4248   24.2409 N   0  0  0  0  0  0  0  0  0  0  0  0
    8.7980   15.1277   21.1951 C   0  0  0  0  0  0  0  0  0  0  0  0
    9.7208   16.3060   21.4125 C   0  0  0  0  0  0  0  0  0  0  0  0
    8.2524   16.4785   21.5686 C   0  0  0  0  0  0  0  0  0  0  0  0
    7.2696   12.1616   25.1288 C   0  0  0  0  0  0  0  0  0  0  0  0
    6.4190   12.7927   26.0548 C   0  0  0  0  0  0  0  0  0  0  0  0
    5.6727   11.9962   26.9179 C   0  0  0  0  0  0  0  0  0  0  0  0
    4.8550   12.5786   27.8039 F   0  0  0  0  0  0  0  0  0  0  0  0
    5.7354   10.6106   26.8698 C   0  0  0  0  0  0  0  0  0  0  0  0
    6.5774    9.9717   25.9579 C   0  0  0  0  0  0  0  0  0  0  0  0
    7.3665   10.7697   25.1236 C   0  0  0  0  0  0  0  0  0  0  0  0
  1  2  1  0
  2  3  1  0
  3  4  2  0
  4  5  1  0
  5  6  2  0
  5  7  1  0
  7  8  1  0
  8  9  1  0
  9 10  2  0
 10 11  1  0
 11 12  1  0
 12 13  2  0
  7 14  1  0
 14 15  1  0
 15 16  1  0
  4 17  1  0
 17 18  2  0
 18 19  1  0
 19 20  1  0
 19 21  2  0
 21 22  1  0
 22 23  2  0
 23  2  1  0
 13  9  1  0
 16 14  1  0
 23 17  1  0
M  END
>  <alias>  (296) 
None

>  <rmsd(smina/fragmenstein)>  (296) 
2.125

>  <smiles>  (296) 
Cn1nc(C(=O)N(Cc2csnn2)C2CC2)c2cc(F)ccc21

>  <gnina_score>  (296) 
5.862

>  <inspiration_score>  (296) 
None

>  <energy_score>  (296) 
-28.520598

>  <distance_score>  (296) 
1.636982

>  <gnina_score_min>  (296) 
5.436

>  <inchikey>  (296) 
CHGPEJUOERWZAG-UHFFFAOYSA-N

>  <exports>  (296) 
['/opt/xchem-fragalysis-2/maxwin/BulkDock/OUTPUTS/openbind_a71ev2a_c2_elabs_1LOUU54.sdf', '/opt/xchem-fragalysis-2/maxwin/BulkDock/OUTPUTS/openbind_a71ev2a_c2_elabs_1LSYIDY.sdf']

>  <name>  (296) 
P570510

>  <ref_pdb>  (296) 
A2339a

>  <subsites>  (296) 
None

>  <HIPPO Pose ID>  (296) 
570510

>  <ref_mols>  (296) 
A2339a

>  <HIPPO Compound ID>  (296) 
411496

>  <tags>  (296) 
openbind_a71ev2a_c2_elabs,syndirella_product,openbind_a71ev2a_c2_elabs_scored,BulkDock Fragalysis export,openbind_a71ev2a_c2_elabs_scored_top80percent,openbind_a71ev2a_c2_elabs_scored_top80percent_despaghettified,syndirella_placed

>  <smina_score_min>  (296) 
-6.348

$$$$
P570512
     RDKit          3D

 23 25  0  0  0  0  0  0  0  0999 V2000
    9.5747    8.7437   23.1095 C   0  0  0  0  0  0  0  0  0  0  0  0
    9.2679   10.0783   23.5629 N   0  0  0  0  0  0  0  0  0  0  0  0
    9.9874   11.1012   23.0643 N   0  0  0  0  0  0  0  0  0  0  0  0
    9.5699   12.1660   23.7633 C   0  0  0  0  0  0  0  0  0  0  0  0
   10.1394   13.5017   23.5738 C   0  0  0  0  0  0  0  0  0  0  0  0
   10.1833   14.2573   24.4646 O   0  0  0  0  0  0  0  0  0  0  0  0
   10.5118   13.6857   22.0838 N   0  0  0  0  0  0  0  0  0  0  0  0
   10.9160   14.8378   21.3755 C   0  0  0  0  0  0  0  0  0  0  0  0
   10.0324   16.0163   21.6621 C   0  0  0  0  0  0  0  0  0  0  0  0
    8.5963   15.8749   21.1958 C   0  0  0  0  0  0  0  0  0  0  0  0
    7.6546   15.0729   22.0678 C   0  0  0  0  0  0  0  0  0  0  0  0
    7.7841   15.3652   23.3769 F   0  0  0  0  0  0  0  0  0  0  0  0
    7.8379   13.7386   21.9150 F   0  0  0  0  0  0  0  0  0  0  0  0
    6.3662   15.3003   21.7275 F   0  0  0  0  0  0  0  0  0  0  0  0
   12.3787   15.1300   21.2441 C   0  0  0  0  0  0  0  0  0  0  0  0
   11.5807   14.7818   20.0273 C   0  0  0  0  0  0  0  0  0  0  0  0
    8.4559   11.8445   24.5905 C   0  0  0  0  0  0  0  0  0  0  0  0
    7.5679   12.5626   25.4173 C   0  0  0  0  0  0  0  0  0  0  0  0
    6.5903   11.8587   26.1192 C   0  0  0  0  0  0  0  0  0  0  0  0
    5.7725   12.5173   26.9514 F   0  0  0  0  0  0  0  0  0  0  0  0
    6.4728   10.4807   26.0129 C   0  0  0  0  0  0  0  0  0  0  0  0
    7.3342    9.7629   25.1814 C   0  0  0  0  0  0  0  0  0  0  0  0
    8.3057   10.4680   24.4632 C   0  0  0  0  0  0  0  0  0  0  0  0
  1  2  1  0
  2  3  1  0
  3  4  2  0
  4  5  1  0
  5  6  2  0
  5  7  1  0
  7  8  1  0
  8  9  1  0
  9 10  1  0
 10 11  1  0
 11 12  1  0
 11 13  1  0
 11 14  1  0
  8 15  1  0
 15 16  1  0
  4 17  1  0
 17 18  2  0
 18 19  1  0
 19 20  1  0
 19 21  2  0
 21 22  1  0
 22 23  2  0
 23  2  1  0
 16  8  1  0
 23 17  1  0
M  END
>  <alias>  (297) 
None

>  <rmsd(smina/fragmenstein)>  (297) 
0.448

>  <smiles>  (297) 
Cn1nc(C(=O)NC2(CCC(F)(F)F)CC2)c2cc(F)ccc21

>  <gnina_score>  (297) 
6.129

>  <inspiration_score>  (297) 
None

>  <energy_score>  (297) 
-29.445863

>  <distance_score>  (297) 
0.425988

>  <gnina_score_min>  (297) 
6.098

>  <inchikey>  (297) 
ATSUJFRQXVMZGB-UHFFFAOYSA-N

>  <exports>  (297) 
['/opt/xchem-fragalysis-2/maxwin/BulkDock/OUTPUTS/openbind_a71ev2a_c2_elabs_1LOUU54.sdf', '/opt/xchem-fragalysis-2/maxwin/BulkDock/OUTPUTS/openbind_a71ev2a_c2_elabs_1LSYIDY.sdf']

>  <name>  (297) 
P570512

>  <ref_pdb>  (297) 
A2339a

>  <subsites>  (297) 
None

>  <HIPPO Pose ID>  (297) 
570512

>  <ref_mols>  (297) 
A2339a

>  <HIPPO Compound ID>  (297) 
411498

>  <tags>  (297) 
openbind_a71ev2a_c2_elabs,syndirella_product,openbind_a71ev2a_c2_elabs_scored,BulkDock Fragalysis export,openbind_a71ev2a_c2_elabs_scored_top80percent,openbind_a71ev2a_c2_elabs_scored_6plus,openbind_a71ev2a_c2_elabs_scored_top80percent_despaghettified,syndirella_placed

>  <smina_score_min>  (297) 
-7.168

$$$$
P570514
     RDKit          3D

 23 26  0  0  0  0  0  0  0  0999 V2000
    8.0000   15.7529   24.7358 C   0  0  0  0  0  0  0  0  0  0  0  0
    9.3732   15.5112   25.1227 N   0  0  0  0  0  0  0  0  0  0  0  0
    9.6968   15.6774   26.4327 N   0  0  0  0  0  0  0  0  0  0  0  0
   10.9220   15.1660   26.5175 C   0  0  0  0  0  0  0  0  0  0  0  0
   11.4053   14.7680   25.2652 C   0  0  0  0  0  0  0  0  0  0  0  0
   10.4784   15.1970   24.3428 C   0  0  0  0  0  0  0  0  0  0  0  0
   10.5353   14.7178   22.8474 C   0  0  0  0  0  0  0  0  0  0  0  0
    9.9587   13.4935   23.0265 N   0  0  0  0  0  0  0  0  0  0  0  0
    8.5273   13.0656   22.9222 C   0  0  0  0  0  0  0  0  0  0  0  0
    7.5895   13.6544   22.5909 O   0  0  0  0  0  0  0  0  0  0  0  0
    8.5040   11.7390   23.4293 C   0  0  0  0  0  0  0  0  0  0  0  0
    9.3796   10.7878   23.1010 N   0  0  0  0  0  0  0  0  0  0  0  0
    8.8840    9.7185   23.7435 N   0  0  0  0  0  0  0  0  0  0  0  0
    9.4189    8.4275   23.4028 C   0  0  0  0  0  0  0  0  0  0  0  0
    7.8973   10.0527   24.6451 C   0  0  0  0  0  0  0  0  0  0  0  0
    7.0903    9.3405   25.5124 C   0  0  0  0  0  0  0  0  0  0  0  0
    6.1907    9.9970   26.3581 C   0  0  0  0  0  0  0  0  0  0  0  0
    6.0897   11.3694   26.3127 C   0  0  0  0  0  0  0  0  0  0  0  0
    5.2641   12.0112   27.1475 F   0  0  0  0  0  0  0  0  0  0  0  0
    6.8146   12.0902   25.3817 C   0  0  0  0  0  0  0  0  0  0  0  0
    7.7089   11.4098   24.5338 C   0  0  0  0  0  0  0  0  0  0  0  0
   11.6778   14.9594   21.9162 C   0  0  0  0  0  0  0  0  0  0  0  0
   10.3271   15.5618   21.6389 C   0  0  0  0  0  0  0  0  0  0  0  0
  1  2  1  0
  2  3  1  0
  3  4  2  0
  4  5  1  0
  5  6  2  0
  6  7  1  0
  7  8  1  0
  8  9  1  0
  9 10  2  0
  9 11  1  0
 11 12  2  0
 12 13  1  0
 13 14  1  0
 13 15  1  0
 15 16  2  0
 16 17  1  0
 17 18  2  0
 18 19  1  0
 18 20  1  0
 20 21  2  0
  7 22  1  0
 22 23  1  0
  6  2  1  0
 23  7  1  0
 21 11  1  0
 21 15  1  0
M  END
>  <alias>  (298) 
None

>  <rmsd(smina/fragmenstein)>  (298) 
0.497

>  <smiles>  (298) 
Cn1nccc1C1(NC(=O)c2nn(C)c3ccc(F)cc23)CC1

>  <gnina_score>  (298) 
6.004

>  <inspiration_score>  (298) 
None

>  <energy_score>  (298) 
-29.13568

>  <distance_score>  (298) 
1.058831

>  <gnina_score_min>  (298) 
5.906

>  <inchikey>  (298) 
BBYWDFXYNMVQBA-UHFFFAOYSA-N

>  <exports>  (298) 
['/opt/xchem-fragalysis-2/maxwin/BulkDock/OUTPUTS/openbind_a71ev2a_c2_elabs_1LOUU54.sdf', '/opt/xchem-fragalysis-2/maxwin/BulkDock/OUTPUTS/openbind_a71ev2a_c2_elabs_1LSYIDY.sdf']

>  <name>  (298) 
P570514

>  <ref_pdb>  (298) 
A2339a

>  <subsites>  (298) 
None

>  <HIPPO Pose ID>  (298) 
570514

>  <ref_mols>  (298) 
A2339a

>  <HIPPO Compound ID>  (298) 
411501

>  <tags>  (298) 
openbind_a71ev2a_c2_elabs,syndirella_product,openbind_a71ev2a_c2_elabs_scored,BulkDock Fragalysis export,openbind_a71ev2a_c2_elabs_scored_top80percent,openbind_a71ev2a_c2_elabs_scored_top80percent_despaghettified,syndirella_placed

>  <smina_score_min>  (298) 
-4.878

$$$$
P570515
     RDKit          3D

 23 25  0  0  0  0  0  0  0  0999 V2000
    9.4617   17.2674   20.8279 C   0  0  0  0  0  0  0  0  0  0  0  0
    9.8966   16.1734   21.6155 O   0  0  0  0  0  0  0  0  0  0  0  0
   11.1894   16.2741   22.2249 C   0  0  0  0  0  0  0  0  0  0  0  0
   12.1784   15.1819   21.9162 C   0  0  1  0  0  0  0  0  0  0  0  0
   12.9348   14.5638   22.9665 O   0  0  0  0  0  0  0  0  0  0  0  0
   12.3578   13.7338   23.9426 C   0  0  0  0  0  0  0  0  0  0  0  0
   11.5500   14.2304   20.9958 C   0  0  0  0  0  0  0  0  0  0  0  0
   10.6966   13.2625   21.6406 N   0  0  0  0  0  0  0  0  0  0  0  0
    9.6897   13.4270   22.8284 C   0  0  0  0  0  0  0  0  0  0  0  0
    9.3478   14.3883   23.4071 O   0  0  0  0  0  0  0  0  0  0  0  0
    9.2145   12.1131   23.2928 C   0  0  0  0  0  0  0  0  0  0  0  0
    9.7672   10.9782   22.8385 N   0  0  0  0  0  0  0  0  0  0  0  0
    9.1453   10.0001   23.5147 N   0  0  0  0  0  0  0  0  0  0  0  0
    9.5406    8.6371   23.2560 C   0  0  0  0  0  0  0  0  0  0  0  0
    8.2025   10.4584   24.4028 C   0  0  0  0  0  0  0  0  0  0  0  0
    7.3143    9.8012   25.2624 C   0  0  0  0  0  0  0  0  0  0  0  0
    6.4855   10.5741   26.0753 C   0  0  0  0  0  0  0  0  0  0  0  0
    6.5536   11.9582   26.0267 C   0  0  0  0  0  0  0  0  0  0  0  0
    5.7832   12.6700   26.8606 F   0  0  0  0  0  0  0  0  0  0  0  0
    7.4140   12.6173   25.1474 C   0  0  0  0  0  0  0  0  0  0  0  0
    8.2489   11.8477   24.3098 C   0  0  0  0  0  0  0  0  0  0  0  0
   12.4889   13.9584   19.8539 C   0  0  0  0  0  0  0  0  0  0  0  0
   11.2307   14.6754   19.5736 C   0  0  0  0  0  0  0  0  0  0  0  0
  1  2  1  0
  2  3  1  0
  4  3  1  1
  4  5  1  0
  5  6  1  0
  4  7  1  0
  7  8  1  0
  8  9  1  0
  9 10  2  0
  9 11  1  0
 11 12  2  0
 12 13  1  0
 13 14  1  0
 13 15  1  0
 15 16  2  0
 16 17  1  0
 17 18  2  0
 18 19  1  0
 18 20  1  0
 20 21  2  0
  7 22  1  0
 22 23  1  0
 23  7  1  0
 21 11  1  0
 21 15  1  0
M  END
>  <alias>  (299) 
None

>  <rmsd(smina/fragmenstein)>  (299) 
1.37

>  <smiles>  (299) 
COC[C@@H](OC)C1(NC(=O)c2nn(C)c3ccc(F)cc23)CC1

>  <gnina_score>  (299) 
5.799

>  <inspiration_score>  (299) 
None

>  <energy_score>  (299) 
-5.319088

>  <distance_score>  (299) 
0.603807

>  <gnina_score_min>  (299) 
5.587

>  <inchikey>  (299) 
CKSHWLDKLOJKNE-CYBMUJFWSA-N

>  <exports>  (299) 
['/opt/xchem-fragalysis-2/maxwin/BulkDock/OUTPUTS/openbind_a71ev2a_c2_elabs_1LOUU54.sdf', '/opt/xchem-fragalysis-2/maxwin/BulkDock/OUTPUTS/openbind_a71ev2a_c2_elabs_1LSYIDY.sdf']

>  <name>  (299) 
P570515

>  <ref_pdb>  (299) 
A2339a

>  <subsites>  (299) 
None

>  <HIPPO Pose ID>  (299) 
570515

>  <ref_mols>  (299) 
A2339a

>  <HIPPO Compound ID>  (299) 
411503

>  <tags>  (299) 
openbind_a71ev2a_c2_elabs,syndirella_product,openbind_a71ev2a_c2_elabs_scored,BulkDock Fragalysis export,openbind_a71ev2a_c2_elabs_scored_top80percent,openbind_a71ev2a_c2_elabs_scored_top80percent_despaghettified,syndirella_placed

>  <smina_score_min>  (299) 
-4.707

$$$$
P570521
     RDKit          3D

 23 26  0  0  0  0  0  0  0  0999 V2000
    9.5170    8.9860   23.1205 C   0  0  0  0  0  0  0  0  0  0  0  0
    9.0920   10.2850   23.5939 N   0  0  0  0  0  0  0  0  0  0  0  0
    9.7201   11.3831   23.1279 N   0  0  0  0  0  0  0  0  0  0  0  0
    9.1545   12.4025   23.8007 C   0  0  0  0  0  0  0  0  0  0  0  0
    9.6794   13.7745   23.7130 C   0  0  0  0  0  0  0  0  0  0  0  0
    9.2861   14.6027   24.4351 O   0  0  0  0  0  0  0  0  0  0  0  0
   10.8032   13.8194   22.6583 N   0  0  0  0  0  0  0  0  0  0  0  0
   11.7135   14.8306   22.3460 C   0  0  1  0  0  0  0  0  0  0  0  0
   12.4357   15.1253   21.0812 C   0  0  1  0  0  0  0  0  0  0  0  0
   12.2986   14.3563   19.8335 C   0  0  0  0  0  0  0  0  0  0  0  0
   10.9114   14.4070   19.2549 C   0  0  0  0  0  0  0  0  0  0  0  0
   10.3130   15.7821   19.2802 C   0  0  0  0  0  0  0  0  0  0  0  0
   10.0954   16.2062   20.7159 C   0  0  0  0  0  0  0  0  0  0  0  0
    9.7053   17.5075   20.7048 F   0  0  0  0  0  0  0  0  0  0  0  0
    9.0655   15.4991   21.2499 F   0  0  0  0  0  0  0  0  0  0  0  0
   11.3355   16.0505   21.5358 C   0  0  1  0  0  0  0  0  0  0  0  0
    8.1077   11.9510   24.6484 C   0  0  0  0  0  0  0  0  0  0  0  0
    7.1998   12.5570   25.5388 C   0  0  0  0  0  0  0  0  0  0  0  0
    6.3306   11.7454   26.2629 C   0  0  0  0  0  0  0  0  0  0  0  0
    5.4895   12.3078   27.1409 F   0  0  0  0  0  0  0  0  0  0  0  0
    6.3422   10.3653   26.1241 C   0  0  0  0  0  0  0  0  0  0  0  0
    7.2430    9.7536   25.2496 C   0  0  0  0  0  0  0  0  0  0  0  0
    8.1133   10.5663   24.5171 C   0  0  0  0  0  0  0  0  0  0  0  0
  1  2  1  0
  2  3  1  0
  3  4  2  0
  4  5  1  0
  5  6  2  0
  5  7  1  0
  8  7  1  6
  8  9  1  0
  9 10  1  6
 10 11  1  0
 11 12  1  0
 12 13  1  0
 13 14  1  0
 13 15  1  0
 16 13  1  6
  4 17  1  0
 17 18  2  0
 18 19  1  0
 19 20  1  0
 19 21  2  0
 21 22  1  0
 22 23  2  0
 23  2  1  0
 16  8  1  0
 23 17  1  0
 16  9  1  0
M  END
>  <alias>  (300) 
None

>  <rmsd(smina/fragmenstein)>  (300) 
0.266

>  <smiles>  (300) 
Cn1nc(C(=O)N[C@H]2[C@H]3CCCC(F)(F)[C@H]32)c2cc(F)ccc21

>  <gnina_score>  (300) 
5.997

>  <inspiration_score>  (300) 
None

>  <energy_score>  (300) 
-43.694916

>  <distance_score>  (300) 
0.527441

>  <gnina_score_min>  (300) 
6.046

>  <inchikey>  (300) 
CDPNBQQDFLYFLF-BIMULSAOSA-N

>  <exports>  (300) 
['/opt/xchem-fragalysis-2/maxwin/BulkDock/OUTPUTS/openbind_a71ev2a_c2_elabs_1LOUU54.sdf', '/opt/xchem-fragalysis-2/maxwin/BulkDock/OUTPUTS/openbind_a71ev2a_c2_elabs_1LSYIDY.sdf']

>  <name>  (300) 
P570521

>  <ref_pdb>  (300) 
A2339a

>  <subsites>  (300) 
None

>  <HIPPO Pose ID>  (300) 
570521

>  <ref_mols>  (300) 
A2339a

>  <HIPPO Compound ID>  (300) 
411512

>  <tags>  (300) 
openbind_a71ev2a_c2_elabs,syndirella_product,openbind_a71ev2a_c2_elabs_scored,BulkDock Fragalysis export,openbind_a71ev2a_c2_elabs_scored_top80percent,openbind_a71ev2a_c2_elabs_scored_6plus,openbind_a71ev2a_c2_elabs_scored_top80percent_despaghettified,syndirella_placed

>  <smina_score_min>  (300) 
-8.351

$$$$
P570522
     RDKit          3D

 24 27  0  0  0  0  0  0  0  0999 V2000
    9.6986   15.1117   25.8306 C   0  0  0  0  0  0  0  0  0  0  0  0
   11.1421   15.1334   25.3752 C   0  0  0  0  0  0  0  0  0  0  0  0
   11.2993   14.4882   24.1075 O   0  0  0  0  0  0  0  0  0  0  0  0
   11.3885   15.1854   22.9214 C   0  0  0  0  0  0  0  0  0  0  0  0
   11.6750   16.3561   22.7994 O   0  0  0  0  0  0  0  0  0  0  0  0
   11.0726   14.3208   21.7417 C   0  0  2  0  0  0  0  0  0  0  0  0
   10.3143   13.2611   22.2492 N   0  0  0  0  0  0  0  0  0  0  0  0
    8.9879   13.2634   23.0030 C   0  0  0  0  0  0  0  0  0  0  0  0
    8.2684   14.1385   23.2591 O   0  0  0  0  0  0  0  0  0  0  0  0
    8.7326   11.9363   23.5071 C   0  0  0  0  0  0  0  0  0  0  0  0
    9.4294   10.8738   23.0853 N   0  0  0  0  0  0  0  0  0  0  0  0
    8.8647    9.8487   23.7410 N   0  0  0  0  0  0  0  0  0  0  0  0
    9.3276    8.5201   23.4313 C   0  0  0  0  0  0  0  0  0  0  0  0
    7.9003   10.2446   24.6408 C   0  0  0  0  0  0  0  0  0  0  0  0
    7.0474    9.5585   25.5004 C   0  0  0  0  0  0  0  0  0  0  0  0
    6.1906   10.2779   26.3368 C   0  0  0  0  0  0  0  0  0  0  0  0
    6.1819   11.6602   26.2968 C   0  0  0  0  0  0  0  0  0  0  0  0
    5.3909   12.3376   27.1377 F   0  0  0  0  0  0  0  0  0  0  0  0
    6.9805   12.3553   25.3992 C   0  0  0  0  0  0  0  0  0  0  0  0
    7.8400   11.6254   24.5532 C   0  0  0  0  0  0  0  0  0  0  0  0
   11.9885   14.3902   20.5986 C   0  0  0  0  0  0  0  0  0  0  0  0
   10.5332   14.8171   20.4244 C   0  0  0  0  0  0  0  0  0  0  0  0
    9.8506   16.1848   20.5184 C   0  0  0  0  0  0  0  0  0  0  0  0
   10.3746   15.6980   19.2376 C   0  0  0  0  0  0  0  0  0  0  0  0
  1  2  1  0
  2  3  1  0
  3  4  1  0
  4  5  2  0
  4  6  1  0
  6  7  1  1
  7  8  1  0
  8  9  2  0
  8 10  1  0
 10 11  2  0
 11 12  1  0
 12 13  1  0
 12 14  1  0
 14 15  2  0
 15 16  1  0
 16 17  2  0
 17 18  1  0
 17 19  1  0
 19 20  2  0
  6 21  1  0
 21 22  1  0
 22 23  1  0
 23 24  1  0
 22  6  1  0
 20 10  1  0
 24 22  1  0
 20 14  1  0
M  END
>  <alias>  (301) 
None

>  <rmsd(smina/fragmenstein)>  (301) 
0.278

>  <smiles>  (301) 
CCOC(=O)[C@]1(NC(=O)c2nn(C)c3ccc(F)cc23)CC12CC2

>  <gnina_score>  (301) 
5.874

>  <inspiration_score>  (301) 
None

>  <energy_score>  (301) 
-15.27576

>  <distance_score>  (301) 
0.6124

>  <gnina_score_min>  (301) 
5.8

>  <inchikey>  (301) 
WPRXKOLLYZQMGM-QGZVFWFLSA-N

>  <exports>  (301) 
['/opt/xchem-fragalysis-2/maxwin/BulkDock/OUTPUTS/openbind_a71ev2a_c2_elabs_1LOUU54.sdf', '/opt/xchem-fragalysis-2/maxwin/BulkDock/OUTPUTS/openbind_a71ev2a_c2_elabs_1LSYIDY.sdf']

>  <name>  (301) 
P570522

>  <ref_pdb>  (301) 
A2339a

>  <subsites>  (301) 
None

>  <HIPPO Pose ID>  (301) 
570522

>  <ref_mols>  (301) 
A2339a

>  <HIPPO Compound ID>  (301) 
411517

>  <tags>  (301) 
openbind_a71ev2a_c2_elabs,syndirella_product,openbind_a71ev2a_c2_elabs_scored,BulkDock Fragalysis export,openbind_a71ev2a_c2_elabs_scored_top80percent,openbind_a71ev2a_c2_elabs_scored_top80percent_despaghettified,syndirella_placed

>  <smina_score_min>  (301) 
-5.677

$$$$
P570525
     RDKit          3D

 24 27  0  0  0  0  0  0  0  0999 V2000
    9.5469    8.3115   23.3492 C   0  0  0  0  0  0  0  0  0  0  0  0
    9.1821    9.6661   23.6544 N   0  0  0  0  0  0  0  0  0  0  0  0
    9.8232   10.6456   22.9958 N   0  0  0  0  0  0  0  0  0  0  0  0
    9.0758   11.7098   23.2786 C   0  0  0  0  0  0  0  0  0  0  0  0
    9.0762   12.8979   22.4692 C   0  0  0  0  0  0  0  0  0  0  0  0
    8.0559   13.4371   22.2974 O   0  0  0  0  0  0  0  0  0  0  0  0
   10.5013   13.3000   22.0479 N   0  0  0  0  0  0  0  0  0  0  0  0
   10.9800   14.4837   21.4168 C   0  0  0  0  0  0  0  0  0  0  0  0
   10.6603   15.6763   22.2776 C   0  0  2  0  0  0  0  0  0  0  0  0
   10.9100   15.3477   23.6779 N   0  0  0  0  0  0  0  0  0  0  0  0
    9.7221   15.1302   24.3446 C   0  0  0  0  0  0  0  0  0  0  0  0
    9.6486   14.6215   25.4496 O   0  0  0  0  0  0  0  0  0  0  0  0
    8.7008   15.5453   23.5558 N   0  0  0  0  0  0  0  0  0  0  0  0
    9.1498   15.8920   22.3009 C   0  0  0  0  0  0  0  0  0  0  0  0
    8.4570   16.2422   21.3611 O   0  0  0  0  0  0  0  0  0  0  0  0
   12.2712   14.4850   20.6506 C   0  0  0  0  0  0  0  0  0  0  0  0
   10.9875   14.7546   19.9370 C   0  0  0  0  0  0  0  0  0  0  0  0
    8.1948   11.4977   24.3664 C   0  0  0  0  0  0  0  0  0  0  0  0
    7.3107   12.2823   25.1381 C   0  0  0  0  0  0  0  0  0  0  0  0
    6.4583   11.6491   26.0362 C   0  0  0  0  0  0  0  0  0  0  0  0
    5.6534   12.3797   26.8197 F   0  0  0  0  0  0  0  0  0  0  0  0
    6.4190   10.2704   26.1240 C   0  0  0  0  0  0  0  0  0  0  0  0
    7.2882    9.4973   25.3512 C   0  0  0  0  0  0  0  0  0  0  0  0
    8.2061   10.1232   24.5113 C   0  0  0  0  0  0  0  0  0  0  0  0
  1  2  1  0
  2  3  1  0
  3  4  2  0
  4  5  1  0
  5  6  2  0
  5  7  1  0
  7  8  1  0
  9  8  1  6
  9 10  1  0
 10 11  1  0
 11 12  2  0
 11 13  1  0
 13 14  1  0
 14 15  2  0
  8 16  1  0
 16 17  1  0
  4 18  1  0
 18 19  2  0
 19 20  1  0
 20 21  1  0
 20 22  2  0
 22 23  1  0
 23 24  2  0
 24  2  1  0
 17  8  1  0
 24 18  1  0
 14  9  1  0
M  END
>  <alias>  (302) 
None

>  <rmsd(smina/fragmenstein)>  (302) 
0.343

>  <smiles>  (302) 
Cn1nc(C(=O)NC2([C@@H]3NC(=O)NC3=O)CC2)c2cc(F)ccc21

>  <gnina_score>  (302) 
5.871

>  <inspiration_score>  (302) 
None

>  <energy_score>  (302) 
-10.317091

>  <distance_score>  (302) 
0.811566

>  <gnina_score_min>  (302) 
5.864

>  <inchikey>  (302) 
TWBANWHPQTYYNB-LLVKDONJSA-N

>  <exports>  (302) 
['/opt/xchem-fragalysis-2/maxwin/BulkDock/OUTPUTS/openbind_a71ev2a_c2_elabs_1LOUU54.sdf', '/opt/xchem-fragalysis-2/maxwin/BulkDock/OUTPUTS/openbind_a71ev2a_c2_elabs_1LSYIDY.sdf']

>  <name>  (302) 
P570525

>  <ref_pdb>  (302) 
A2339a

>  <subsites>  (302) 
None

>  <HIPPO Pose ID>  (302) 
570525

>  <ref_mols>  (302) 
A2339a

>  <HIPPO Compound ID>  (302) 
411524

>  <tags>  (302) 
openbind_a71ev2a_c2_elabs,syndirella_product,openbind_a71ev2a_c2_elabs_scored,BulkDock Fragalysis export,openbind_a71ev2a_c2_elabs_scored_top80percent,openbind_a71ev2a_c2_elabs_scored_top80percent_despaghettified,syndirella_placed

>  <smina_score_min>  (302) 
-3.704

$$$$
P570527
     RDKit          3D

 24 27  0  0  0  0  0  0  0  0999 V2000
    6.8875   16.1159   22.5854 C   0  0  0  0  0  0  0  0  0  0  0  0
    8.2286   15.9690   21.9694 C   0  0  0  0  0  0  0  0  0  0  0  0
    8.6058   16.6920   20.8771 N   0  0  0  0  0  0  0  0  0  0  0  0
    9.7262   16.1380   20.4634 C   0  0  0  0  0  0  0  0  0  0  0  0
   10.3325   16.2767   19.1526 C   0  0  0  0  0  0  0  0  0  0  0  0
   10.2068   15.2867   21.3886 N   0  0  0  0  0  0  0  0  0  0  0  0
   11.6054   15.1767   21.7499 C   0  0  0  0  0  0  0  0  0  0  0  0
   12.2549   13.9077   22.2015 C   0  0  0  0  0  0  0  0  0  0  0  0
   12.5953   14.5136   20.8658 C   0  0  0  0  0  0  0  0  0  0  0  0
    9.2017   15.0455   22.2432 C   0  0  0  0  0  0  0  0  0  0  0  0
    9.1347   13.9822   23.0371 N   0  0  0  0  0  0  0  0  0  0  0  0
    8.4913   13.8067   24.3896 C   0  0  0  0  0  0  0  0  0  0  0  0
    7.9738   14.5782   25.0830 O   0  0  0  0  0  0  0  0  0  0  0  0
    8.5544   12.3858   24.6429 C   0  0  0  0  0  0  0  0  0  0  0  0
    9.2727   11.5371   23.8774 N   0  0  0  0  0  0  0  0  0  0  0  0
    8.7507   10.3279   24.1687 N   0  0  0  0  0  0  0  0  0  0  0  0
    9.2956    9.1598   23.5068 C   0  0  0  0  0  0  0  0  0  0  0  0
    7.7149   10.4106   25.0707 C   0  0  0  0  0  0  0  0  0  0  0  0
    6.8465    9.4807   25.6172 C   0  0  0  0  0  0  0  0  0  0  0  0
    5.8629    9.9057   26.5167 C   0  0  0  0  0  0  0  0  0  0  0  0
    5.7468   11.2451   26.8404 C   0  0  0  0  0  0  0  0  0  0  0  0
    4.8072   11.6556   27.6963 F   0  0  0  0  0  0  0  0  0  0  0  0
    6.5963   12.1845   26.2978 C   0  0  0  0  0  0  0  0  0  0  0  0
    7.5999   11.7417   25.4248 C   0  0  0  0  0  0  0  0  0  0  0  0
  1  2  1  0
  2  3  1  0
  3  4  2  0
  4  5  1  0
  4  6  1  0
  6  7  1  0
  7  8  1  0
  8  9  1  0
  6 10  1  0
 10 11  1  0
 11 12  1  0
 12 13  2  0
 12 14  1  0
 14 15  2  0
 15 16  1  0
 16 17  1  0
 16 18  1  0
 18 19  2  0
 19 20  1  0
 20 21  2  0
 21 22  1  0
 21 23  1  0
 23 24  2  0
 10  2  2  0
 24 14  1  0
  9  7  1  0
 24 18  1  0
M  END
>  <alias>  (303) 
None

>  <rmsd(smina/fragmenstein)>  (303) 
0.735

>  <smiles>  (303) 
Cc1nc(C)n(C2CC2)c1NC(=O)c1nn(C)c2ccc(F)cc12

>  <gnina_score>  (303) 
6.17

>  <inspiration_score>  (303) 
None

>  <energy_score>  (303) 
-6.868791

>  <distance_score>  (303) 
1.48834

>  <gnina_score_min>  (303) 
5.977

>  <inchikey>  (303) 
DSVLZLNBFKBLFO-UHFFFAOYSA-N

>  <exports>  (303) 
['/opt/xchem-fragalysis-2/maxwin/BulkDock/OUTPUTS/openbind_a71ev2a_c2_elabs_1LOUU54.sdf', '/opt/xchem-fragalysis-2/maxwin/BulkDock/OUTPUTS/openbind_a71ev2a_c2_elabs_1LSYIDY.sdf']

>  <name>  (303) 
P570527

>  <ref_pdb>  (303) 
A2339a

>  <subsites>  (303) 
None

>  <HIPPO Pose ID>  (303) 
570527

>  <ref_mols>  (303) 
A2339a

>  <HIPPO Compound ID>  (303) 
411525

>  <tags>  (303) 
openbind_a71ev2a_c2_elabs,syndirella_product,openbind_a71ev2a_c2_elabs_scored,BulkDock Fragalysis export,openbind_a71ev2a_c2_elabs_scored_top80percent,openbind_a71ev2a_c2_elabs_scored_top80percent_despaghettified,syndirella_placed

>  <smina_score_min>  (303) 
-6.65

$$$$
P570528
     RDKit          3D

 24 27  0  0  0  0  0  0  0  0999 V2000
    9.4895    8.9232   23.1485 C   0  0  0  0  0  0  0  0  0  0  0  0
    9.1747   10.2284   23.6839 N   0  0  0  0  0  0  0  0  0  0  0  0
    9.9408   11.2694   23.3158 N   0  0  0  0  0  0  0  0  0  0  0  0
    9.4157   12.3259   23.9652 C   0  0  0  0  0  0  0  0  0  0  0  0
    9.9694   13.6801   23.7777 C   0  0  0  0  0  0  0  0  0  0  0  0
    9.6504   14.5757   24.4536 O   0  0  0  0  0  0  0  0  0  0  0  0
   10.8792   13.6403   22.5415 N   0  0  0  0  0  0  0  0  0  0  0  0
   11.5119   14.7005   21.8181 C   0  0  0  0  0  0  0  0  0  0  0  0
   10.6574   15.0461   20.5901 C   0  0  0  0  0  0  0  0  0  0  0  0
    9.1847   15.0836   20.9235 C   0  0  0  0  0  0  0  0  0  0  0  0
    8.4506   13.9984   21.1329 N   0  0  0  0  0  0  0  0  0  0  0  0
    7.2631   14.3426   21.7199 N   0  0  0  0  0  0  0  0  0  0  0  0
    7.2577   15.6486   21.8096 C   0  0  0  0  0  0  0  0  0  0  0  0
    8.3681   16.1539   21.1954 N   0  0  0  0  0  0  0  0  0  0  0  0
    8.6266   17.5870   21.1117 C   0  0  0  0  0  0  0  0  0  0  0  0
    8.4179   18.6923   20.0912 C   0  0  0  0  0  0  0  0  0  0  0  0
    9.7419   18.0749   20.2826 C   0  0  0  0  0  0  0  0  0  0  0  0
    8.2887   11.9468   24.7426 C   0  0  0  0  0  0  0  0  0  0  0  0
    7.3584   12.6129   25.5640 C   0  0  0  0  0  0  0  0  0  0  0  0
    6.4016   11.8570   26.2379 C   0  0  0  0  0  0  0  0  0  0  0  0
    5.5495   12.4696   27.0708 F   0  0  0  0  0  0  0  0  0  0  0  0
    6.3360   10.4776   26.1012 C   0  0  0  0  0  0  0  0  0  0  0  0
    7.2288    9.8102   25.2608 C   0  0  0  0  0  0  0  0  0  0  0  0
    8.1896   10.5665   24.5813 C   0  0  0  0  0  0  0  0  0  0  0  0
  1  2  1  0
  2  3  1  0
  3  4  2  0
  4  5  1  0
  5  6  2  0
  5  7  1  0
  7  8  1  0
  8  9  1  0
  9 10  1  0
 10 11  2  0
 11 12  1  0
 12 13  2  0
 13 14  1  0
 14 15  1  0
 15 16  1  0
 16 17  1  0
  4 18  1  0
 18 19  2  0
 19 20  1  0
 20 21  1  0
 20 22  2  0
 22 23  1  0
 23 24  2  0
 24  2  1  0
 14 10  1  0
 17 15  1  0
 24 18  1  0
M  END
>  <alias>  (304) 
None

>  <rmsd(smina/fragmenstein)>  (304) 
1.021

>  <smiles>  (304) 
Cn1nc(C(=O)NCCc2nncn2C2CC2)c2cc(F)ccc21

>  <gnina_score>  (304) 
6.096

>  <inspiration_score>  (304) 
None

>  <energy_score>  (304) 
-12.986034

>  <distance_score>  (304) 
0.621763

>  <gnina_score_min>  (304) 
6.186

>  <inchikey>  (304) 
VTOPOEAGZZYBDK-UHFFFAOYSA-N

>  <exports>  (304) 
['/opt/xchem-fragalysis-2/maxwin/BulkDock/OUTPUTS/openbind_a71ev2a_c2_elabs_1LOUU54.sdf', '/opt/xchem-fragalysis-2/maxwin/BulkDock/OUTPUTS/openbind_a71ev2a_c2_elabs_1LSYIDY.sdf']

>  <name>  (304) 
P570528

>  <ref_pdb>  (304) 
A2339a

>  <subsites>  (304) 
None

>  <HIPPO Pose ID>  (304) 
570528

>  <ref_mols>  (304) 
A2339a

>  <HIPPO Compound ID>  (304) 
411526

>  <tags>  (304) 
openbind_a71ev2a_c2_elabs,syndirella_product,openbind_a71ev2a_c2_elabs_scored,BulkDock Fragalysis export,openbind_a71ev2a_c2_elabs_scored_top80percent,openbind_a71ev2a_c2_elabs_scored_6plus,openbind_a71ev2a_c2_elabs_scored_top80percent_despaghettified,syndirella_placed

>  <smina_score_min>  (304) 
-5.721

$$$$
P570532
     RDKit          3D

 24 27  0  0  0  0  0  0  0  0999 V2000
   11.4104   15.0050   18.4326 C   0  0  0  0  0  0  0  0  0  0  0  0
   11.5215   15.3752   19.8138 N   0  0  0  0  0  0  0  0  0  0  0  0
   12.6375   14.7084   20.4413 C   0  0  0  0  0  0  0  0  0  0  0  0
   12.7375   15.3652   21.7918 C   0  0  0  0  0  0  0  0  0  0  0  0
   11.6165   14.8918   22.6933 C   0  0  2  0  0  0  0  0  0  0  0  0
   12.1073   13.7266   23.5438 C   0  0  0  0  0  0  0  0  0  0  0  0
   11.0027   12.9171   23.8672 N   0  0  0  0  0  0  0  0  0  0  0  0
    9.7390   13.2351   24.6553 C   0  0  0  0  0  0  0  0  0  0  0  0
    9.4334   14.1947   25.2344 O   0  0  0  0  0  0  0  0  0  0  0  0
    8.8946   12.0592   24.5050 C   0  0  0  0  0  0  0  0  0  0  0  0
    9.2956   11.0423   23.7187 N   0  0  0  0  0  0  0  0  0  0  0  0
    8.5189   10.0216   24.0905 N   0  0  0  0  0  0  0  0  0  0  0  0
    8.8809    8.7039   23.6265 C   0  0  0  0  0  0  0  0  0  0  0  0
    7.5414   10.3955   24.9852 C   0  0  0  0  0  0  0  0  0  0  0  0
    6.5501    9.6970   25.6707 C   0  0  0  0  0  0  0  0  0  0  0  0
    5.7439   10.3937   26.5720 C   0  0  0  0  0  0  0  0  0  0  0  0
    5.8998   11.7589   26.7452 C   0  0  0  0  0  0  0  0  0  0  0  0
    5.1227   12.4030   27.6214 F   0  0  0  0  0  0  0  0  0  0  0  0
    6.8772   12.4678   26.0677 C   0  0  0  0  0  0  0  0  0  0  0  0
    7.7164   11.7608   25.1945 C   0  0  0  0  0  0  0  0  0  0  0  0
   10.3752   14.5345   21.8760 C   0  0  0  0  0  0  0  0  0  0  0  0
   10.3035   15.3326   20.6262 C   0  0  0  0  0  0  0  0  0  0  0  0
    8.9744   15.2892   20.0009 C   0  0  0  0  0  0  0  0  0  0  0  0
    9.4429   16.5690   20.6295 C   0  0  0  0  0  0  0  0  0  0  0  0
  1  2  1  0
  2  3  1  0
  3  4  1  0
  4  5  1  0
  5  6  1  6
  6  7  1  0
  7  8  1  0
  8  9  2  0
  8 10  1  0
 10 11  2  0
 11 12  1  0
 12 13  1  0
 12 14  1  0
 14 15  2  0
 15 16  1  0
 16 17  2  0
 17 18  1  0
 17 19  1  0
 19 20  2  0
  5 21  1  0
 21 22  1  0
 22 23  1  0
 23 24  1  0
 22  2  1  0
 20 10  1  0
 24 22  1  0
 20 14  1  0
M  END
>  <alias>  (305) 
None

>  <rmsd(smina/fragmenstein)>  (305) 
0.211

>  <smiles>  (305) 
CN1CC[C@H](CNC(=O)c2nn(C)c3ccc(F)cc23)CC12CC2

>  <gnina_score>  (305) 
6.261

>  <inspiration_score>  (305) 
None

>  <energy_score>  (305) 
-29.523074

>  <distance_score>  (305) 
1.269244

>  <gnina_score_min>  (305) 
6.3

>  <inchikey>  (305) 
GJWSTUXJNINECE-LBPRGKRZSA-N

>  <exports>  (305) 
['/opt/xchem-fragalysis-2/maxwin/BulkDock/OUTPUTS/openbind_a71ev2a_c2_elabs_1LOUU54.sdf', '/opt/xchem-fragalysis-2/maxwin/BulkDock/OUTPUTS/openbind_a71ev2a_c2_elabs_1LSYIDY.sdf']

>  <name>  (305) 
P570532

>  <ref_pdb>  (305) 
A2339a

>  <subsites>  (305) 
None

>  <HIPPO Pose ID>  (305) 
570532

>  <ref_mols>  (305) 
A2339a

>  <HIPPO Compound ID>  (305) 
411536

>  <tags>  (305) 
openbind_a71ev2a_c2_elabs,syndirella_product,openbind_a71ev2a_c2_elabs_scored,BulkDock Fragalysis export,openbind_a71ev2a_c2_elabs_scored_top80percent,openbind_a71ev2a_c2_elabs_scored_6plus,openbind_a71ev2a_c2_elabs_scored_top80percent_despaghettified,syndirella_placed

>  <smina_score_min>  (305) 
-6.747

$$$$
P570533
     RDKit          3D

 24 27  0  0  0  0  0  0  0  0999 V2000
    9.1403    8.7773   23.5192 C   0  0  0  0  0  0  0  0  0  0  0  0
    8.7161   10.1021   23.9110 N   0  0  0  0  0  0  0  0  0  0  0  0
    9.4307   11.1480   23.4716 N   0  0  0  0  0  0  0  0  0  0  0  0
    8.9487   12.1950   24.1663 C   0  0  0  0  0  0  0  0  0  0  0  0
    9.7230   13.4312   24.2690 C   0  0  0  0  0  0  0  0  0  0  0  0
    9.3384   14.3818   24.8157 O   0  0  0  0  0  0  0  0  0  0  0  0
   11.0754   13.1370   23.6302 N   0  0  0  0  0  0  0  0  0  0  0  0
   12.2679   13.9008   23.6058 C   0  0  0  0  0  0  0  0  0  0  0  0
   12.5102   14.5583   22.2717 C   0  0  2  0  0  0  0  0  0  0  0  0
   11.4540   15.5164   21.8406 C   0  0  0  0  0  0  0  0  0  0  0  0
   11.6368   15.4608   20.4374 N   0  0  0  0  0  0  0  0  0  0  0  0
   10.7362   16.0686   19.5549 C   0  0  0  0  0  0  0  0  0  0  0  0
    9.3617   15.5459   19.4977 C   0  0  0  0  0  0  0  0  0  0  0  0
    9.6171   16.9440   20.0194 C   0  0  0  0  0  0  0  0  0  0  0  0
   12.1884   14.2528   20.0968 C   0  0  0  0  0  0  0  0  0  0  0  0
   12.2966   13.8215   18.9625 O   0  0  0  0  0  0  0  0  0  0  0  0
   12.5473   13.5914   21.2300 O   0  0  0  0  0  0  0  0  0  0  0  0
    7.8181   11.8477   24.9282 C   0  0  0  0  0  0  0  0  0  0  0  0
    6.9609   12.5323   25.8061 C   0  0  0  0  0  0  0  0  0  0  0  0
    6.0417   11.7937   26.5384 C   0  0  0  0  0  0  0  0  0  0  0  0
    5.2501   12.4241   27.4134 F   0  0  0  0  0  0  0  0  0  0  0  0
    5.9595   10.4157   26.4203 C   0  0  0  0  0  0  0  0  0  0  0  0
    6.8004    9.7323   25.5411 C   0  0  0  0  0  0  0  0  0  0  0  0
    7.7306   10.4638   24.8018 C   0  0  0  0  0  0  0  0  0  0  0  0
  1  2  1  0
  2  3  1  0
  3  4  2  0
  4  5  1  0
  5  6  2  0
  5  7  1  0
  7  8  1  0
  9  8  1  1
  9 10  1  0
 10 11  1  0
 11 12  1  0
 12 13  1  0
 13 14  1  0
 11 15  1  0
 15 16  2  0
 15 17  1  0
  4 18  1  0
 18 19  2  0
 19 20  1  0
 20 21  1  0
 20 22  2  0
 22 23  1  0
 23 24  2  0
 24  2  1  0
 17  9  1  0
 24 18  1  0
 14 12  1  0
M  END
>  <alias>  (306) 
None

>  <rmsd(smina/fragmenstein)>  (306) 
0.694

>  <smiles>  (306) 
Cn1nc(C(=O)NC[C@@H]2CN(C3CC3)C(=O)O2)c2cc(F)ccc21

>  <gnina_score>  (306) 
5.876

>  <inspiration_score>  (306) 
None

>  <energy_score>  (306) 
-24.346981

>  <distance_score>  (306) 
1.056687

>  <gnina_score_min>  (306) 
5.955

>  <inchikey>  (306) 
XCZJRRLWJIIKSQ-LLVKDONJSA-N

>  <exports>  (306) 
['/opt/xchem-fragalysis-2/maxwin/BulkDock/OUTPUTS/openbind_a71ev2a_c2_elabs_1LOUU54.sdf', '/opt/xchem-fragalysis-2/maxwin/BulkDock/OUTPUTS/openbind_a71ev2a_c2_elabs_1LSYIDY.sdf']

>  <name>  (306) 
P570533

>  <ref_pdb>  (306) 
A2339a

>  <subsites>  (306) 
None

>  <HIPPO Pose ID>  (306) 
570533

>  <ref_mols>  (306) 
A2339a

>  <HIPPO Compound ID>  (306) 
411538

>  <tags>  (306) 
openbind_a71ev2a_c2_elabs,syndirella_product,openbind_a71ev2a_c2_elabs_scored,BulkDock Fragalysis export,openbind_a71ev2a_c2_elabs_scored_top80percent,openbind_a71ev2a_c2_elabs_scored_top80percent_despaghettified,syndirella_placed

>  <smina_score_min>  (306) 
-6.911

$$$$
P570537
     RDKit          3D

 24 27  0  0  0  0  0  0  0  0999 V2000
    8.9080    8.7068   23.6743 C   0  0  0  0  0  0  0  0  0  0  0  0
    8.4363   10.0078   24.0809 N   0  0  0  0  0  0  0  0  0  0  0  0
    9.0216   11.0767   23.5307 N   0  0  0  0  0  0  0  0  0  0  0  0
    8.4197   12.1177   24.1345 C   0  0  0  0  0  0  0  0  0  0  0  0
    8.8574   13.4644   23.8731 C   0  0  0  0  0  0  0  0  0  0  0  0
    8.3646   14.4135   24.3263 O   0  0  0  0  0  0  0  0  0  0  0  0
   10.0965   13.3146   23.0068 N   0  0  0  0  0  0  0  0  0  0  0  0
   11.0183   14.2451   22.6009 C   0  0  0  0  0  0  0  0  0  0  0  0
   10.8938   14.7119   21.2130 C   0  0  0  0  0  0  0  0  0  0  0  0
    9.9934   15.7245   20.8678 C   0  0  0  0  0  0  0  0  0  0  0  0
   10.0890   16.3021   19.6263 C   0  0  0  0  0  0  0  0  0  0  0  0
   11.0004   15.7811   18.7262 C   0  0  0  0  0  0  0  0  0  0  0  0
   11.2514   16.4063   17.5888 F   0  0  0  0  0  0  0  0  0  0  0  0
   11.8106   14.7208   19.0064 C   0  0  0  0  0  0  0  0  0  0  0  0
   11.7996   14.2267   20.2727 C   0  0  0  0  0  0  0  0  0  0  0  0
   12.3753   14.2574   23.2263 C   0  0  0  0  0  0  0  0  0  0  0  0
   11.3474   15.2808   23.6071 C   0  0  0  0  0  0  0  0  0  0  0  0
    7.4744   11.7291   25.0802 C   0  0  0  0  0  0  0  0  0  0  0  0
    6.6456   12.4080   25.9850 C   0  0  0  0  0  0  0  0  0  0  0  0
    5.8125   11.6556   26.7924 C   0  0  0  0  0  0  0  0  0  0  0  0
    5.0414   12.2817   27.6866 F   0  0  0  0  0  0  0  0  0  0  0  0
    5.7693   10.2763   26.6950 C   0  0  0  0  0  0  0  0  0  0  0  0
    6.5883    9.6090   25.7826 C   0  0  0  0  0  0  0  0  0  0  0  0
    7.4743   10.3439   25.0054 C   0  0  0  0  0  0  0  0  0  0  0  0
  1  2  1  0
  2  3  1  0
  3  4  2  0
  4  5  1  0
  5  6  2  0
  5  7  1  0
  7  8  1  0
  8  9  1  0
  9 10  2  0
 10 11  1  0
 11 12  2  0
 12 13  1  0
 12 14  1  0
 14 15  2  0
  8 16  1  0
 16 17  1  0
  4 18  1  0
 18 19  2  0
 19 20  1  0
 20 21  1  0
 20 22  2  0
 22 23  1  0
 23 24  2  0
 24  2  1  0
 17  8  1  0
 24 18  1  0
 15  9  1  0
M  END
>  <alias>  (307) 
None

>  <rmsd(smina/fragmenstein)>  (307) 
1.927

>  <smiles>  (307) 
Cn1nc(C(=O)NC2(c3ccc(F)cc3)CC2)c2cc(F)ccc21

>  <gnina_score>  (307) 
5.781

>  <inspiration_score>  (307) 
None

>  <energy_score>  (307) 
-9.548314

>  <distance_score>  (307) 
1.358193

>  <gnina_score_min>  (307) 
5.402

>  <inchikey>  (307) 
OELWKCNXJZJDPZ-UHFFFAOYSA-N

>  <exports>  (307) 
['/opt/xchem-fragalysis-2/maxwin/BulkDock/OUTPUTS/openbind_a71ev2a_c2_elabs_1LOUU54.sdf', '/opt/xchem-fragalysis-2/maxwin/BulkDock/OUTPUTS/openbind_a71ev2a_c2_elabs_1LSYIDY.sdf']

>  <name>  (307) 
P570537

>  <ref_pdb>  (307) 
A2339a

>  <subsites>  (307) 
None

>  <HIPPO Pose ID>  (307) 
570537

>  <ref_mols>  (307) 
A2339a

>  <HIPPO Compound ID>  (307) 
411544

>  <tags>  (307) 
openbind_a71ev2a_c2_elabs,syndirella_product,openbind_a71ev2a_c2_elabs_scored,BulkDock Fragalysis export,openbind_a71ev2a_c2_elabs_scored_top80percent,openbind_a71ev2a_c2_elabs_scored_top80percent_despaghettified,syndirella_placed

>  <smina_score_min>  (307) 
-6.521

$$$$
P570538
     RDKit          3D

 24 27  0  0  0  0  0  0  0  0999 V2000
    9.4483    8.8629   23.1968 C   0  0  0  0  0  0  0  0  0  0  0  0
    9.1314   10.1612   23.7459 N   0  0  0  0  0  0  0  0  0  0  0  0
    9.8420   11.2214   23.3204 N   0  0  0  0  0  0  0  0  0  0  0  0
    9.3951   12.2463   24.0676 C   0  0  0  0  0  0  0  0  0  0  0  0
    9.8373   13.6157   23.8069 C   0  0  0  0  0  0  0  0  0  0  0  0
    9.8774   14.4530   24.6145 O   0  0  0  0  0  0  0  0  0  0  0  0
   10.1034   13.6751   22.3019 N   0  0  0  0  0  0  0  0  0  0  0  0
   10.3672   14.7288   21.4968 C   0  0  0  0  0  0  0  0  0  0  0  0
   11.2675   14.7198   20.4591 C   0  0  0  0  0  0  0  0  0  0  0  0
   10.8671   15.7685   19.6415 C   0  0  0  0  0  0  0  0  0  0  0  0
    9.8972   16.5004   20.1816 N   0  0  0  0  0  0  0  0  0  0  0  0
    9.5401   15.8332   21.3117 N   0  0  0  0  0  0  0  0  0  0  0  0
    8.1071   16.0200   21.7112 C   0  0  1  0  0  0  0  0  0  0  0  0
    7.1384   14.8418   21.7950 C   0  0  0  0  0  0  0  0  0  0  0  0
    7.3168   15.7759   22.9290 C   0  0  0  0  0  0  0  0  0  0  0  0
    6.2225   16.5481   23.2548 F   0  0  0  0  0  0  0  0  0  0  0  0
    7.7746   15.2885   24.1154 F   0  0  0  0  0  0  0  0  0  0  0  0
    8.2864   11.8638   24.8651 C   0  0  0  0  0  0  0  0  0  0  0  0
    7.3629   12.5296   25.6949 C   0  0  0  0  0  0  0  0  0  0  0  0
    6.3785   11.7811   26.3344 C   0  0  0  0  0  0  0  0  0  0  0  0
    5.5273   12.3927   27.1680 F   0  0  0  0  0  0  0  0  0  0  0  0
    6.2850   10.4093   26.1591 C   0  0  0  0  0  0  0  0  0  0  0  0
    7.1751    9.7461   25.3123 C   0  0  0  0  0  0  0  0  0  0  0  0
    8.1562   10.4939   24.6565 C   0  0  0  0  0  0  0  0  0  0  0  0
  1  2  1  0
  2  3  1  0
  3  4  2  0
  4  5  1  0
  5  6  2  0
  5  7  1  0
  7  8  1  0
  8  9  2  0
  9 10  1  0
 10 11  2  0
 11 12  1  0
 13 12  1  1
 13 14  1  0
 14 15  1  0
 15 16  1  0
 15 17  1  0
  4 18  1  0
 18 19  2  0
 19 20  1  0
 20 21  1  0
 20 22  2  0
 22 23  1  0
 23 24  2  0
 24  2  1  0
 12  8  1  0
 15 13  1  0
 24 18  1  0
M  END
>  <alias>  (308) 
None

>  <rmsd(smina/fragmenstein)>  (308) 
0.374

>  <smiles>  (308) 
Cn1nc(C(=O)Nc2ccnn2[C@H]2CC2(F)F)c2cc(F)ccc21

>  <gnina_score>  (308) 
6.141

>  <inspiration_score>  (308) 
None

>  <energy_score>  (308) 
-21.351044

>  <distance_score>  (308) 
0.462074

>  <gnina_score_min>  (308) 
6.143

>  <inchikey>  (308) 
WVUFCJDSQOQGCE-NSHDSACASA-N

>  <exports>  (308) 
['/opt/xchem-fragalysis-2/maxwin/BulkDock/OUTPUTS/openbind_a71ev2a_c2_elabs_1LOUU54.sdf', '/opt/xchem-fragalysis-2/maxwin/BulkDock/OUTPUTS/openbind_a71ev2a_c2_elabs_1LSYIDY.sdf']

>  <name>  (308) 
P570538

>  <ref_pdb>  (308) 
A2339a

>  <subsites>  (308) 
None

>  <HIPPO Pose ID>  (308) 
570538

>  <ref_mols>  (308) 
A2339a

>  <HIPPO Compound ID>  (308) 
411545

>  <tags>  (308) 
openbind_a71ev2a_c2_elabs,syndirella_product,openbind_a71ev2a_c2_elabs_scored,BulkDock Fragalysis export,openbind_a71ev2a_c2_elabs_scored_top80percent,openbind_a71ev2a_c2_elabs_scored_6plus,openbind_a71ev2a_c2_elabs_scored_top80percent_despaghettified,syndirella_placed

>  <smina_score_min>  (308) 
-7.551

$$$$
P570539
     RDKit          3D

 24 27  0  0  0  0  0  0  0  0999 V2000
    9.3814   15.7067   19.3016 C   0  0  0  0  0  0  0  0  0  0  0  0
   10.5142   15.2093   20.0459 C   0  0  0  0  0  0  0  0  0  0  0  0
   11.6972   15.0130   19.3916 C   0  0  0  0  0  0  0  0  0  0  0  0
   12.7797   14.8241   20.1859 C   0  0  0  0  0  0  0  0  0  0  0  0
   12.6539   14.7549   21.5634 C   0  0  0  0  0  0  0  0  0  0  0  0
   11.4273   14.6773   22.1884 C   0  0  0  0  0  0  0  0  0  0  0  0
   11.2322   14.0837   23.5282 C   0  0  0  0  0  0  0  0  0  0  0  0
   10.1773   13.2092   23.6045 N   0  0  0  0  0  0  0  0  0  0  0  0
    8.7416   13.4330   24.0305 C   0  0  0  0  0  0  0  0  0  0  0  0
    8.1844   14.4091   24.3164 O   0  0  0  0  0  0  0  0  0  0  0  0
    8.2069   12.1060   24.1043 C   0  0  0  0  0  0  0  0  0  0  0  0
    8.8366   11.0812   23.5016 N   0  0  0  0  0  0  0  0  0  0  0  0
    8.3104    9.9999   24.0812 N   0  0  0  0  0  0  0  0  0  0  0  0
    8.8592    8.7192   23.7075 C   0  0  0  0  0  0  0  0  0  0  0  0
    7.3451   10.3147   25.0104 C   0  0  0  0  0  0  0  0  0  0  0  0
    6.5150    9.5658   25.8297 C   0  0  0  0  0  0  0  0  0  0  0  0
    5.7086   10.2162   26.7656 C   0  0  0  0  0  0  0  0  0  0  0  0
    5.7100   11.5969   26.8466 C   0  0  0  0  0  0  0  0  0  0  0  0
    4.9633   12.2095   27.7692 F   0  0  0  0  0  0  0  0  0  0  0  0
    6.4786   12.3643   25.9939 C   0  0  0  0  0  0  0  0  0  0  0  0
    7.2806   11.6987   25.0567 C   0  0  0  0  0  0  0  0  0  0  0  0
   11.4319   14.8023   24.8122 C   0  0  0  0  0  0  0  0  0  0  0  0
   12.4128   13.7419   24.3654 C   0  0  0  0  0  0  0  0  0  0  0  0
   10.3551   15.0445   21.4165 C   0  0  0  0  0  0  0  0  0  0  0  0
  1  2  1  0
  2  3  2  0
  3  4  1  0
  4  5  2  0
  5  6  1  0
  6  7  1  0
  7  8  1  0
  8  9  1  0
  9 10  2  0
  9 11  1  0
 11 12  2  0
 12 13  1  0
 13 14  1  0
 13 15  1  0
 15 16  2  0
 16 17  1  0
 17 18  2  0
 18 19  1  0
 18 20  1  0
 20 21  2  0
  7 22  1  0
 22 23  1  0
  6 24  2  0
 24  2  1  0
 23  7  1  0
 21 11  1  0
 21 15  1  0
M  END
>  <alias>  (309) 
None

>  <rmsd(smina/fragmenstein)>  (309) 
0.845

>  <smiles>  (309) 
Cc1cccc(C2(NC(=O)c3nn(C)c4ccc(F)cc34)CC2)c1

>  <gnina_score>  (309) 
5.844

>  <inspiration_score>  (309) 
None

>  <energy_score>  (309) 
-8.490837

>  <distance_score>  (309) 
1.825235

>  <gnina_score_min>  (309) 
5.835

>  <inchikey>  (309) 
JWJZULOEJKYXLI-UHFFFAOYSA-N

>  <exports>  (309) 
['/opt/xchem-fragalysis-2/maxwin/BulkDock/OUTPUTS/openbind_a71ev2a_c2_elabs_1LOUU54.sdf', '/opt/xchem-fragalysis-2/maxwin/BulkDock/OUTPUTS/openbind_a71ev2a_c2_elabs_1LSYIDY.sdf']

>  <name>  (309) 
P570539

>  <ref_pdb>  (309) 
A2339a

>  <subsites>  (309) 
None

>  <HIPPO Pose ID>  (309) 
570539

>  <ref_mols>  (309) 
A2339a

>  <HIPPO Compound ID>  (309) 
411558

>  <tags>  (309) 
openbind_a71ev2a_c2_elabs,syndirella_product,openbind_a71ev2a_c2_elabs_scored,BulkDock Fragalysis export,openbind_a71ev2a_c2_elabs_scored_top80percent,openbind_a71ev2a_c2_elabs_scored_top80percent_despaghettified,syndirella_placed

>  <smina_score_min>  (309) 
-6.935

$$$$
P570540
     RDKit          3D

 24 27  0  0  0  0  0  0  0  0999 V2000
    9.3453    8.3296   23.4621 C   0  0  0  0  0  0  0  0  0  0  0  0
    8.8688    9.6524   23.7523 N   0  0  0  0  0  0  0  0  0  0  0  0
    9.4143   10.6630   23.0571 N   0  0  0  0  0  0  0  0  0  0  0  0
    8.6067   11.6729   23.3689 C   0  0  0  0  0  0  0  0  0  0  0  0
    8.6753   12.9823   22.8319 C   0  0  0  0  0  0  0  0  0  0  0  0
    7.7651   13.5554   22.4064 O   0  0  0  0  0  0  0  0  0  0  0  0
   10.0931   13.4242   23.0446 N   0  0  0  0  0  0  0  0  0  0  0  0
   10.6778   14.6509   22.8803 C   0  0  0  0  0  0  0  0  0  0  0  0
   10.3830   15.1824   24.2875 C   0  0  0  0  0  0  0  0  0  0  0  0
   11.2723   14.9611   25.3371 C   0  0  0  0  0  0  0  0  0  0  0  0
   10.9653   15.2437   26.6774 C   0  0  0  0  0  0  0  0  0  0  0  0
    9.6831   15.6544   27.0213 C   0  0  0  0  0  0  0  0  0  0  0  0
    9.2250   16.0773   28.9953 I   0  0  0  0  0  0  0  0  0  0  0  0
    8.7084   15.7430   26.0395 C   0  0  0  0  0  0  0  0  0  0  0  0
    9.0573   15.4885   24.7034 C   0  0  0  0  0  0  0  0  0  0  0  0
   10.4909   15.4535   21.6258 C   0  0  0  0  0  0  0  0  0  0  0  0
   11.8436   14.9098   21.9879 C   0  0  0  0  0  0  0  0  0  0  0  0
    7.8076   11.4309   24.4957 C   0  0  0  0  0  0  0  0  0  0  0  0
    6.9777   12.2098   25.3276 C   0  0  0  0  0  0  0  0  0  0  0  0
    6.2014   11.5620   26.2744 C   0  0  0  0  0  0  0  0  0  0  0  0
    5.4279   12.2767   27.1003 F   0  0  0  0  0  0  0  0  0  0  0  0
    6.2036   10.1840   26.3597 C   0  0  0  0  0  0  0  0  0  0  0  0
    7.0501    9.4329   25.5369 C   0  0  0  0  0  0  0  0  0  0  0  0
    7.9027   10.0661   24.6459 C   0  0  0  0  0  0  0  0  0  0  0  0
  1  2  1  0
  2  3  1  0
  3  4  2  0
  4  5  1  0
  5  6  2  0
  5  7  1  0
  7  8  1  0
  8  9  1  0
  9 10  2  0
 10 11  1  0
 11 12  2  0
 12 13  1  0
 12 14  1  0
 14 15  2  0
  8 16  1  0
 16 17  1  0
  4 18  1  0
 18 19  2  0
 19 20  1  0
 20 21  1  0
 20 22  2  0
 22 23  1  0
 23 24  2  0
 24  2  1  0
 17  8  1  0
 24 18  1  0
 15  9  1  0
M  END
>  <alias>  (310) 
None

>  <rmsd(smina/fragmenstein)>  (310) 
0.452

>  <smiles>  (310) 
Cn1nc(C(=O)NC2(c3ccc(I)cc3)CC2)c2cc(F)ccc21

>  <gnina_score>  (310) 
6.156

>  <inspiration_score>  (310) 
None

>  <energy_score>  (310) 
-15.196009

>  <distance_score>  (310) 
1.025599

>  <gnina_score_min>  (310) 
6.112

>  <inchikey>  (310) 
VQOCCYJZBXOMAO-UHFFFAOYSA-N

>  <exports>  (310) 
['/opt/xchem-fragalysis-2/maxwin/BulkDock/OUTPUTS/openbind_a71ev2a_c2_elabs_1LOUU54.sdf', '/opt/xchem-fragalysis-2/maxwin/BulkDock/OUTPUTS/openbind_a71ev2a_c2_elabs_1LSYIDY.sdf']

>  <name>  (310) 
P570540

>  <ref_pdb>  (310) 
A2339a

>  <subsites>  (310) 
None

>  <HIPPO Pose ID>  (310) 
570540

>  <ref_mols>  (310) 
A2339a

>  <HIPPO Compound ID>  (310) 
411560

>  <tags>  (310) 
openbind_a71ev2a_c2_elabs,syndirella_product,openbind_a71ev2a_c2_elabs_scored,BulkDock Fragalysis export,openbind_a71ev2a_c2_elabs_scored_top80percent,openbind_a71ev2a_c2_elabs_scored_6plus,openbind_a71ev2a_c2_elabs_scored_top80percent_despaghettified,syndirella_placed

>  <smina_score_min>  (310) 
-5.841

$$$$
P570541
     RDKit          3D

 24 27  0  0  0  0  0  0  0  0999 V2000
    9.6569    9.1222   23.0979 C   0  0  0  0  0  0  0  0  0  0  0  0
    9.1167   10.4232   23.4325 N   0  0  0  0  0  0  0  0  0  0  0  0
    9.5094   11.5047   22.7287 N   0  0  0  0  0  0  0  0  0  0  0  0
    8.7040   12.5011   23.1440 C   0  0  0  0  0  0  0  0  0  0  0  0
    8.6512   13.8438   22.4861 C   0  0  0  0  0  0  0  0  0  0  0  0
    7.9441   14.6535   22.9509 O   0  0  0  0  0  0  0  0  0  0  0  0
    9.6684   13.9474   21.3100 N   0  0  0  0  0  0  0  0  0  0  0  0
   10.0850   15.0765   20.5420 C   0  0  0  0  0  0  0  0  0  0  0  0
   10.4254   16.2124   21.4472 C   0  0  0  0  0  0  0  0  0  0  0  0
   11.6843   15.8552   22.1986 C   0  0  0  0  0  0  0  0  0  0  0  0
   11.4270   14.8175   23.1734 N   0  0  0  0  0  0  0  0  0  0  0  0
   10.8775   15.1820   24.4439 C   0  0  0  0  0  0  0  0  0  0  0  0
   11.1054   13.9761   25.2950 C   0  0  0  0  0  0  0  0  0  0  0  0
   12.0716   13.0751   24.5345 C   0  0  0  0  0  0  0  0  0  0  0  0
   12.4585   13.8304   23.2972 C   0  0  0  0  0  0  0  0  0  0  0  0
   11.0333   14.8367   19.3760 C   0  0  0  0  0  0  0  0  0  0  0  0
    9.7381   15.5351   19.1811 C   0  0  0  0  0  0  0  0  0  0  0  0
    7.9480   12.0789   24.2870 C   0  0  0  0  0  0  0  0  0  0  0  0
    7.0525   12.6872   25.1899 C   0  0  0  0  0  0  0  0  0  0  0  0
    6.3733   11.8832   26.1045 C   0  0  0  0  0  0  0  0  0  0  0  0
    5.5384   12.4488   26.9866 F   0  0  0  0  0  0  0  0  0  0  0  0
    6.5274   10.5040   26.1158 C   0  0  0  0  0  0  0  0  0  0  0  0
    7.4336    9.8890   25.2509 C   0  0  0  0  0  0  0  0  0  0  0  0
    8.1621   10.7051   24.3775 C   0  0  0  0  0  0  0  0  0  0  0  0
  1  2  1  0
  2  3  1  0
  3  4  2  0
  4  5  1  0
  5  6  2  0
  5  7  1  0
  7  8  1  0
  8  9  1  0
  9 10  1  0
 10 11  1  0
 11 12  1  0
 12 13  1  0
 13 14  1  0
 14 15  1  0
  8 16  1  0
 16 17  1  0
  4 18  1  0
 18 19  2  0
 19 20  1  0
 20 21  1  0
 20 22  2  0
 22 23  1  0
 23 24  2  0
 24  2  1  0
 17  8  1  0
 24 18  1  0
 15 11  1  0
M  END
>  <alias>  (311) 
None

>  <rmsd(smina/fragmenstein)>  (311) 
0.68

>  <smiles>  (311) 
Cn1nc(C(=O)NC2(CCN3CCCC3)CC2)c2cc(F)ccc21

>  <gnina_score>  (311) 
6.287

>  <inspiration_score>  (311) 
None

>  <energy_score>  (311) 
-15.719279

>  <distance_score>  (311) 
1.020043

>  <gnina_score_min>  (311) 
6.047

>  <inchikey>  (311) 
WOUYJDJRBYSAHC-UHFFFAOYSA-N

>  <exports>  (311) 
['/opt/xchem-fragalysis-2/maxwin/BulkDock/OUTPUTS/openbind_a71ev2a_c2_elabs_1LOUU54.sdf', '/opt/xchem-fragalysis-2/maxwin/BulkDock/OUTPUTS/openbind_a71ev2a_c2_elabs_1LSYIDY.sdf']

>  <name>  (311) 
P570541

>  <ref_pdb>  (311) 
A2339a

>  <subsites>  (311) 
None

>  <HIPPO Pose ID>  (311) 
570541

>  <ref_mols>  (311) 
A2339a

>  <HIPPO Compound ID>  (311) 
411562

>  <tags>  (311) 
openbind_a71ev2a_c2_elabs,syndirella_product,openbind_a71ev2a_c2_elabs_scored,BulkDock Fragalysis export,openbind_a71ev2a_c2_elabs_scored_top80percent,openbind_a71ev2a_c2_elabs_scored_6plus,openbind_a71ev2a_c2_elabs_scored_top80percent_despaghettified,syndirella_placed

>  <smina_score_min>  (311) 
-5.807

$$$$
P570545
     RDKit          3D

 24 27  0  0  0  0  0  0  0  0999 V2000
    9.3035   16.7797   28.0045 C   0  0  0  0  0  0  0  0  0  0  0  0
    8.9485   15.6361   27.0682 C   0  0  0  0  0  0  0  0  0  0  0  0
   10.0012   15.3551   26.0608 C   0  0  0  0  0  0  0  0  0  0  0  0
   11.2341   14.9535   26.3719 N   0  0  0  0  0  0  0  0  0  0  0  0
   11.8069   14.6978   25.1203 O   0  0  0  0  0  0  0  0  0  0  0  0
   10.9317   15.1318   24.1631 C   0  0  0  0  0  0  0  0  0  0  0  0
   10.9700   14.5635   22.6740 C   0  0  0  0  0  0  0  0  0  0  0  0
   10.2157   13.4322   22.8853 N   0  0  0  0  0  0  0  0  0  0  0  0
    8.7278   13.2689   23.1023 C   0  0  0  0  0  0  0  0  0  0  0  0
    7.8717   14.0489   23.0633 O   0  0  0  0  0  0  0  0  0  0  0  0
    8.5224   11.9082   23.4920 C   0  0  0  0  0  0  0  0  0  0  0  0
    9.3164   10.8976   23.1197 N   0  0  0  0  0  0  0  0  0  0  0  0
    8.7813    9.8435   23.7603 N   0  0  0  0  0  0  0  0  0  0  0  0
    9.2978    8.5354   23.4480 C   0  0  0  0  0  0  0  0  0  0  0  0
    7.8104   10.2041   24.6697 C   0  0  0  0  0  0  0  0  0  0  0  0
    6.9955    9.5044   25.5490 C   0  0  0  0  0  0  0  0  0  0  0  0
    6.1408   10.2039   26.4067 C   0  0  0  0  0  0  0  0  0  0  0  0
    6.1005   11.5856   26.3715 C   0  0  0  0  0  0  0  0  0  0  0  0
    5.3252   12.2481   27.2379 F   0  0  0  0  0  0  0  0  0  0  0  0
    6.8511   12.2953   25.4484 C   0  0  0  0  0  0  0  0  0  0  0  0
    7.6859   11.5758   24.5710 C   0  0  0  0  0  0  0  0  0  0  0  0
   12.0931   14.7121   21.7123 C   0  0  0  0  0  0  0  0  0  0  0  0
   10.7996   15.4446   21.4766 C   0  0  0  0  0  0  0  0  0  0  0  0
    9.7880   15.4961   24.7199 N   0  0  0  0  0  0  0  0  0  0  0  0
  1  2  1  0
  2  3  1  0
  3  4  2  0
  4  5  1  0
  5  6  1  0
  6  7  1  0
  7  8  1  0
  8  9  1  0
  9 10  2  0
  9 11  1  0
 11 12  2  0
 12 13  1  0
 13 14  1  0
 13 15  1  0
 15 16  2  0
 16 17  1  0
 17 18  2  0
 18 19  1  0
 18 20  1  0
 20 21  2  0
  7 22  1  0
 22 23  1  0
  6 24  2  0
 24  3  1  0
 23  7  1  0
 21 11  1  0
 21 15  1  0
M  END
>  <alias>  (312) 
None

>  <rmsd(smina/fragmenstein)>  (312) 
0.694

>  <smiles>  (312) 
CCc1noc(C2(NC(=O)c3nn(C)c4ccc(F)cc34)CC2)n1

>  <gnina_score>  (312) 
6.116

>  <inspiration_score>  (312) 
None

>  <energy_score>  (312) 
-21.623858

>  <distance_score>  (312) 
0.85585

>  <gnina_score_min>  (312) 
6.072

>  <inchikey>  (312) 
XENJNWPVZVRIAN-UHFFFAOYSA-N

>  <exports>  (312) 
['/opt/xchem-fragalysis-2/maxwin/BulkDock/OUTPUTS/openbind_a71ev2a_c2_elabs_1LOUU54.sdf', '/opt/xchem-fragalysis-2/maxwin/BulkDock/OUTPUTS/openbind_a71ev2a_c2_elabs_1LSYIDY.sdf']

>  <name>  (312) 
P570545

>  <ref_pdb>  (312) 
A2339a

>  <subsites>  (312) 
None

>  <HIPPO Pose ID>  (312) 
570545

>  <ref_mols>  (312) 
A2339a

>  <HIPPO Compound ID>  (312) 
411565

>  <tags>  (312) 
openbind_a71ev2a_c2_elabs,syndirella_product,openbind_a71ev2a_c2_elabs_scored,BulkDock Fragalysis export,openbind_a71ev2a_c2_elabs_scored_top80percent,openbind_a71ev2a_c2_elabs_scored_6plus,openbind_a71ev2a_c2_elabs_scored_top80percent_despaghettified,syndirella_placed

>  <smina_score_min>  (312) 
-5.262

$$$$
P570546
     RDKit          3D

 24 27  0  0  0  0  0  0  0  0999 V2000
    8.9842    8.9657   23.6785 C   0  0  0  0  0  0  0  0  0  0  0  0
    8.4613   10.2319   24.1455 N   0  0  0  0  0  0  0  0  0  0  0  0
    9.0794   11.3569   23.7565 N   0  0  0  0  0  0  0  0  0  0  0  0
    8.4738   12.3311   24.4709 C   0  0  0  0  0  0  0  0  0  0  0  0
    9.0358   13.6723   24.5276 C   0  0  0  0  0  0  0  0  0  0  0  0
    8.5090   14.6115   24.9605 O   0  0  0  0  0  0  0  0  0  0  0  0
   10.4338   13.4990   23.9654 N   0  0  0  0  0  0  0  0  0  0  0  0
   11.4272   14.4257   23.7307 C   0  0  1  0  0  0  0  0  0  0  0  0
   12.7682   13.9492   23.3439 C   0  0  0  0  0  0  0  0  0  0  0  0
   11.9147   14.6139   22.3115 C   0  0  0  0  0  0  0  0  0  0  0  0
   11.9639   16.0334   21.8735 C   0  0  0  0  0  0  0  0  0  0  0  0
   10.5823   16.4111   21.3909 C   0  0  0  0  0  0  0  0  0  0  0  0
   10.0895   15.4721   20.3123 C   0  0  0  0  0  0  0  0  0  0  0  0
    9.9146   16.2531   19.0481 C   0  0  0  0  0  0  0  0  0  0  0  0
    8.7660   14.8788   20.8090 C   0  0  0  0  0  0  0  0  0  0  0  0
   11.1458   14.4299   19.9709 C   0  0  0  0  0  0  0  0  0  0  0  0
   11.5546   13.6839   21.2174 C   0  0  0  0  0  0  0  0  0  0  0  0
    7.4209   11.8481   25.2433 C   0  0  0  0  0  0  0  0  0  0  0  0
    6.5298   12.4306   26.1524 C   0  0  0  0  0  0  0  0  0  0  0  0
    5.6897   11.5916   26.8598 C   0  0  0  0  0  0  0  0  0  0  0  0
    4.8670   12.1252   27.7667 F   0  0  0  0  0  0  0  0  0  0  0  0
    5.7057   10.2196   26.6700 C   0  0  0  0  0  0  0  0  0  0  0  0
    6.5760    9.6458   25.7424 C   0  0  0  0  0  0  0  0  0  0  0  0
    7.4517   10.4724   25.0485 C   0  0  0  0  0  0  0  0  0  0  0  0
  1  2  1  0
  2  3  1  0
  3  4  2  0
  4  5  1  0
  5  6  2  0
  5  7  1  0
  8  7  1  6
  8  9  1  0
  9 10  1  0
 10 11  1  0
 11 12  1  0
 12 13  1  0
 13 14  1  0
 13 15  1  0
 13 16  1  0
 16 17  1  0
  4 18  1  0
 18 19  2  0
 19 20  1  0
 20 21  1  0
 20 22  2  0
 22 23  1  0
 23 24  2  0
 24  2  1  0
 10  8  1  0
 24 18  1  0
 17 10  1  0
M  END
>  <alias>  (313) 
None

>  <rmsd(smina/fragmenstein)>  (313) 
0.742

>  <smiles>  (313) 
Cn1nc(C(=O)N[C@H]2CC23CCC(C)(C)CC3)c2cc(F)ccc21

>  <gnina_score>  (313) 
6.054

>  <inspiration_score>  (313) 
None

>  <energy_score>  (313) 
-11.231422

>  <distance_score>  (313) 
1.465882

>  <gnina_score_min>  (313) 
5.905

>  <inchikey>  (313) 
INVPHWIMFBPVEW-HNNXBMFYSA-N

>  <exports>  (313) 
['/opt/xchem-fragalysis-2/maxwin/BulkDock/OUTPUTS/openbind_a71ev2a_c2_elabs_1LOUU54.sdf', '/opt/xchem-fragalysis-2/maxwin/BulkDock/OUTPUTS/openbind_a71ev2a_c2_elabs_1LSYIDY.sdf']

>  <name>  (313) 
P570546

>  <ref_pdb>  (313) 
A2339a

>  <subsites>  (313) 
None

>  <HIPPO Pose ID>  (313) 
570546

>  <ref_mols>  (313) 
A2339a

>  <HIPPO Compound ID>  (313) 
411566

>  <tags>  (313) 
openbind_a71ev2a_c2_elabs,syndirella_product,openbind_a71ev2a_c2_elabs_scored,BulkDock Fragalysis export,openbind_a71ev2a_c2_elabs_scored_top80percent,openbind_a71ev2a_c2_elabs_scored_top80percent_despaghettified,syndirella_placed

>  <smina_score_min>  (313) 
-5.372

$$$$
P570547
     RDKit          3D

 24 27  0  0  0  0  0  0  0  0999 V2000
    9.4220    8.8090   23.3435 C   0  0  0  0  0  0  0  0  0  0  0  0
    9.0412   10.1524   23.7133 N   0  0  0  0  0  0  0  0  0  0  0  0
    9.7455   11.1700   23.1953 N   0  0  0  0  0  0  0  0  0  0  0  0
    9.2969   12.2598   23.8464 C   0  0  0  0  0  0  0  0  0  0  0  0
    9.9881   13.5515   23.6860 C   0  0  0  0  0  0  0  0  0  0  0  0
    9.7642   14.4593   24.3792 O   0  0  0  0  0  0  0  0  0  0  0  0
   11.0113   13.3921   22.5578 N   0  0  0  0  0  0  0  0  0  0  0  0
   12.0398   14.2773   22.1026 C   0  0  0  0  0  0  0  0  0  0  0  0
   11.7137   14.6932   20.7018 C   0  0  0  0  0  0  0  0  0  0  0  0
   12.3148   14.2325   19.6399 N   0  0  0  0  0  0  0  0  0  0  0  0
   11.6335   14.8115   18.6126 N   0  0  0  0  0  0  0  0  0  0  0  0
   10.6060   15.5898   19.1020 C   0  0  0  0  0  0  0  0  0  0  0  0
    9.7768   16.1680   18.4275 O   0  0  0  0  0  0  0  0  0  0  0  0
   10.7068   15.5544   20.4604 N   0  0  0  0  0  0  0  0  0  0  0  0
    9.8765   16.2072   21.4080 C   0  0  0  0  0  0  0  0  0  0  0  0
    8.4068   15.9295   21.4768 C   0  0  0  0  0  0  0  0  0  0  0  0
    8.9025   17.2866   21.0390 C   0  0  0  0  0  0  0  0  0  0  0  0
    8.1952   11.9430   24.6833 C   0  0  0  0  0  0  0  0  0  0  0  0
    7.3304   12.6621   25.5306 C   0  0  0  0  0  0  0  0  0  0  0  0
    6.3841   11.9563   26.2716 C   0  0  0  0  0  0  0  0  0  0  0  0
    5.5844   12.6181   27.1175 F   0  0  0  0  0  0  0  0  0  0  0  0
    6.2747   10.5759   26.1880 C   0  0  0  0  0  0  0  0  0  0  0  0
    7.1200    9.8521   25.3466 C   0  0  0  0  0  0  0  0  0  0  0  0
    8.0709   10.5559   24.5990 C   0  0  0  0  0  0  0  0  0  0  0  0
  1  2  1  0
  2  3  1  0
  3  4  2  0
  4  5  1  0
  5  6  2  0
  5  7  1  0
  7  8  1  0
  8  9  1  0
  9 10  2  0
 10 11  1  0
 11 12  1  0
 12 13  2  0
 12 14  1  0
 14 15  1  0
 15 16  1  0
 16 17  1  0
  4 18  1  0
 18 19  2  0
 19 20  1  0
 20 21  1  0
 20 22  2  0
 22 23  1  0
 23 24  2  0
 24  2  1  0
 14  9  1  0
 17 15  1  0
 24 18  1  0
M  END
>  <alias>  (314) 
None

>  <rmsd(smina/fragmenstein)>  (314) 
0.259

>  <smiles>  (314) 
Cn1nc(C(=O)NCc2n[nH]c(=O)n2C2CC2)c2cc(F)ccc21

>  <gnina_score>  (314) 
6.535

>  <inspiration_score>  (314) 
None

>  <energy_score>  (314) 
-33.820077

>  <distance_score>  (314) 
0.579639

>  <gnina_score_min>  (314) 
6.49

>  <inchikey>  (314) 
LZMLIVCSJJRMKK-UHFFFAOYSA-N

>  <exports>  (314) 
['/opt/xchem-fragalysis-2/maxwin/BulkDock/OUTPUTS/openbind_a71ev2a_c2_elabs_1LOUU54.sdf', '/opt/xchem-fragalysis-2/maxwin/BulkDock/OUTPUTS/openbind_a71ev2a_c2_elabs_1LSYIDY.sdf']

>  <name>  (314) 
P570547

>  <ref_pdb>  (314) 
A2339a

>  <subsites>  (314) 
None

>  <HIPPO Pose ID>  (314) 
570547

>  <ref_mols>  (314) 
A2339a

>  <HIPPO Compound ID>  (314) 
411568

>  <tags>  (314) 
openbind_a71ev2a_c2_elabs,syndirella_product,openbind_a71ev2a_c2_elabs_scored,BulkDock Fragalysis export,openbind_a71ev2a_c2_elabs_scored_top80percent,openbind_a71ev2a_c2_elabs_scored_6plus,openbind_a71ev2a_c2_elabs_scored_top80percent_despaghettified,syndirella_placed

>  <smina_score_min>  (314) 
-6.797

$$$$
P570551
     RDKit          3D

 24 27  0  0  0  0  0  0  0  0999 V2000
    9.8417   16.1369   26.9223 C   0  0  0  0  0  0  0  0  0  0  0  0
   10.5090   14.8624   26.4666 C   0  0  0  0  0  0  0  0  0  0  0  0
   11.1903   14.8656   25.1519 C   0  0  0  0  0  0  0  0  0  0  0  0
   10.9949   15.5956   24.0844 N   0  0  0  0  0  0  0  0  0  0  0  0
   11.6780   14.8992   23.0961 C   0  0  0  0  0  0  0  0  0  0  0  0
   10.8674   14.5647   21.7733 C   0  0  0  0  0  0  0  0  0  0  0  0
   10.0694   13.5252   22.2486 N   0  0  0  0  0  0  0  0  0  0  0  0
    8.8900   13.5430   23.2249 C   0  0  0  0  0  0  0  0  0  0  0  0
    8.3425   14.4367   23.7313 O   0  0  0  0  0  0  0  0  0  0  0  0
    8.5534   12.1722   23.5637 C   0  0  0  0  0  0  0  0  0  0  0  0
    9.2567   11.1403   23.0670 N   0  0  0  0  0  0  0  0  0  0  0  0
    8.7821   10.0695   23.7260 N   0  0  0  0  0  0  0  0  0  0  0  0
    9.3465    8.7760   23.4179 C   0  0  0  0  0  0  0  0  0  0  0  0
    7.8165   10.3921   24.6515 C   0  0  0  0  0  0  0  0  0  0  0  0
    7.0261    9.6322   25.5104 C   0  0  0  0  0  0  0  0  0  0  0  0
    6.1629   10.2882   26.3910 C   0  0  0  0  0  0  0  0  0  0  0  0
    6.1033   11.6716   26.4070 C   0  0  0  0  0  0  0  0  0  0  0  0
    5.3152   12.2854   27.2974 F   0  0  0  0  0  0  0  0  0  0  0  0
    6.8508   12.4364   25.5220 C   0  0  0  0  0  0  0  0  0  0  0  0
    7.6951   11.7745   24.6108 C   0  0  0  0  0  0  0  0  0  0  0  0
   10.3624   15.6633   20.8953 C   0  0  0  0  0  0  0  0  0  0  0  0
   11.4717   14.7601   20.4278 C   0  0  0  0  0  0  0  0  0  0  0  0
   12.4762   13.9335   23.5986 N   0  0  0  0  0  0  0  0  0  0  0  0
   12.0831   13.8538   24.9333 O   0  0  0  0  0  0  0  0  0  0  0  0
  1  2  1  0
  2  3  1  0
  3  4  2  0
  4  5  1  0
  5  6  1  0
  6  7  1  0
  7  8  1  0
  8  9  2  0
  8 10  1  0
 10 11  2  0
 11 12  1  0
 12 13  1  0
 12 14  1  0
 14 15  2  0
 15 16  1  0
 16 17  2  0
 17 18  1  0
 17 19  1  0
 19 20  2  0
  6 21  1  0
 21 22  1  0
  5 23  2  0
 23 24  1  0
 24  3  1  0
 22  6  1  0
 20 10  1  0
 20 14  1  0
M  END
>  <alias>  (315) 
None

>  <rmsd(smina/fragmenstein)>  (315) 
0.829

>  <smiles>  (315) 
CCc1nc(C2(NC(=O)c3nn(C)c4ccc(F)cc34)CC2)no1

>  <gnina_score>  (315) 
6.091

>  <inspiration_score>  (315) 
None

>  <energy_score>  (315) 
-14.229698

>  <distance_score>  (315) 
0.614358

>  <gnina_score_min>  (315) 
5.949

>  <inchikey>  (315) 
BLMOOBSNPKECMS-UHFFFAOYSA-N

>  <exports>  (315) 
['/opt/xchem-fragalysis-2/maxwin/BulkDock/OUTPUTS/openbind_a71ev2a_c2_elabs_1LOUU54.sdf', '/opt/xchem-fragalysis-2/maxwin/BulkDock/OUTPUTS/openbind_a71ev2a_c2_elabs_1LSYIDY.sdf']

>  <name>  (315) 
P570551

>  <ref_pdb>  (315) 
A2339a

>  <subsites>  (315) 
None

>  <HIPPO Pose ID>  (315) 
570551

>  <ref_mols>  (315) 
A2339a

>  <HIPPO Compound ID>  (315) 
411571

>  <tags>  (315) 
openbind_a71ev2a_c2_elabs,syndirella_product,openbind_a71ev2a_c2_elabs_scored,BulkDock Fragalysis export,openbind_a71ev2a_c2_elabs_scored_top80percent,openbind_a71ev2a_c2_elabs_scored_top80percent_despaghettified,syndirella_placed

>  <smina_score_min>  (315) 
-6.266

$$$$
P570553
     RDKit          3D

 24 27  0  0  0  0  0  0  0  0999 V2000
    9.5380    8.9109   23.1541 C   0  0  0  0  0  0  0  0  0  0  0  0
    9.1690   10.1873   23.7219 N   0  0  0  0  0  0  0  0  0  0  0  0
    9.8229   11.2935   23.3081 N   0  0  0  0  0  0  0  0  0  0  0  0
    9.3519   12.2672   24.1059 C   0  0  0  0  0  0  0  0  0  0  0  0
    9.6550   13.6821   23.9222 C   0  0  0  0  0  0  0  0  0  0  0  0
    9.7657   14.4300   24.8103 O   0  0  0  0  0  0  0  0  0  0  0  0
    9.6767   13.9251   22.4087 N   0  0  0  0  0  0  0  0  0  0  0  0
    9.7417   15.1232   21.6768 C   0  0  0  0  0  0  0  0  0  0  0  0
    8.4022   15.9131   21.7660 C   0  0  0  0  0  0  0  0  0  0  0  0
    7.4791   15.3398   22.7816 N   0  0  0  0  0  0  0  0  0  0  0  0
    6.5622   14.3293   22.2419 C   0  0  0  0  0  0  0  0  0  0  0  0
    5.1078   14.7970   22.1286 C   0  0  0  0  0  0  0  0  0  0  0  0
    4.5400   15.1707   23.3867 O   0  0  0  0  0  0  0  0  0  0  0  0
    5.5085   15.7073   24.2952 C   0  0  0  0  0  0  0  0  0  0  0  0
    6.7466   16.3101   23.6061 C   0  0  0  0  0  0  0  0  0  0  0  0
   11.0680   15.8187   21.4892 C   0  0  0  0  0  0  0  0  0  0  0  0
   10.4396   15.1267   20.3288 C   0  0  0  0  0  0  0  0  0  0  0  0
    8.2684   11.8124   24.9000 C   0  0  0  0  0  0  0  0  0  0  0  0
    7.3316   12.4221   25.7563 C   0  0  0  0  0  0  0  0  0  0  0  0
    6.3622   11.6303   26.3603 C   0  0  0  0  0  0  0  0  0  0  0  0
    5.4946   12.1949   27.2097 F   0  0  0  0  0  0  0  0  0  0  0  0
    6.3085   10.2640   26.1348 C   0  0  0  0  0  0  0  0  0  0  0  0
    7.2261    9.6569   25.2729 C   0  0  0  0  0  0  0  0  0  0  0  0
    8.1820   10.4530   24.6412 C   0  0  0  0  0  0  0  0  0  0  0  0
  1  2  1  0
  2  3  1  0
  3  4  2  0
  4  5  1  0
  5  6  2  0
  5  7  1  0
  7  8  1  0
  8  9  1  0
  9 10  1  0
 10 11  1  0
 11 12  1  0
 12 13  1  0
 13 14  1  0
 14 15  1  0
  8 16  1  0
 16 17  1  0
  4 18  1  0
 18 19  2  0
 19 20  1  0
 20 21  1  0
 20 22  2  0
 22 23  1  0
 23 24  2  0
 24  2  1  0
 17  8  1  0
 24 18  1  0
 15 10  1  0
M  END
>  <alias>  (316) 
None

>  <rmsd(smina/fragmenstein)>  (316) 
0.627

>  <smiles>  (316) 
Cn1nc(C(=O)NC2(CN3CCOCC3)CC2)c2cc(F)ccc21

>  <gnina_score>  (316) 
5.747

>  <inspiration_score>  (316) 
None

>  <energy_score>  (316) 
-25.213035

>  <distance_score>  (316) 
0.665519

>  <gnina_score_min>  (316) 
5.782

>  <inchikey>  (316) 
FJEGPXFRPZKHBT-UHFFFAOYSA-N

>  <exports>  (316) 
['/opt/xchem-fragalysis-2/maxwin/BulkDock/OUTPUTS/openbind_a71ev2a_c2_elabs_1LOUU54.sdf', '/opt/xchem-fragalysis-2/maxwin/BulkDock/OUTPUTS/openbind_a71ev2a_c2_elabs_1LSYIDY.sdf']

>  <name>  (316) 
P570553

>  <ref_pdb>  (316) 
A2339a

>  <subsites>  (316) 
None

>  <HIPPO Pose ID>  (316) 
570553

>  <ref_mols>  (316) 
A2339a

>  <HIPPO Compound ID>  (316) 
411580

>  <tags>  (316) 
openbind_a71ev2a_c2_elabs,syndirella_product,openbind_a71ev2a_c2_elabs_scored,BulkDock Fragalysis export,openbind_a71ev2a_c2_elabs_scored_top80percent,openbind_a71ev2a_c2_elabs_scored_top80percent_despaghettified,syndirella_placed

>  <smina_score_min>  (316) 
-7.423

$$$$
P570554
     RDKit          3D

 24 28  0  0  0  0  0  0  0  0999 V2000
    9.2043    9.0550   23.3211 C   0  0  0  0  0  0  0  0  0  0  0  0
    8.7761   10.2665   23.9858 N   0  0  0  0  0  0  0  0  0  0  0  0
    9.4762   11.3922   23.7648 N   0  0  0  0  0  0  0  0  0  0  0  0
    8.9442   12.2762   24.6315 C   0  0  0  0  0  0  0  0  0  0  0  0
    9.5520   13.5752   24.8892 C   0  0  0  0  0  0  0  0  0  0  0  0
    9.2320   14.2657   25.7625 O   0  0  0  0  0  0  0  0  0  0  0  0
   10.5304   13.8056   23.7698 N   0  0  0  0  0  0  0  0  0  0  0  0
   11.2593   14.9512   23.4151 C   0  0  0  0  0  0  0  0  0  0  0  0
   10.8411   15.2455   22.0092 C   0  0  2  0  0  0  0  0  0  0  0  0
   11.0949   16.5217   21.1937 C   0  0  0  0  0  0  0  0  0  0  0  0
   11.1800   15.4875   20.0372 C   0  0  2  0  0  0  0  0  0  0  0  0
    9.8484   14.7918   20.0605 C   0  0  0  0  0  0  0  0  0  0  0  0
    9.5299   14.7398   21.4888 N   0  0  0  0  0  0  0  0  0  0  0  0
    8.3267   15.5680   21.7753 C   0  0  0  0  0  0  0  0  0  0  0  0
    7.0311   14.7931   21.9181 C   0  0  0  0  0  0  0  0  0  0  0  0
    7.5504   15.5940   23.0580 C   0  0  0  0  0  0  0  0  0  0  0  0
   11.9506   14.6462   21.0475 C   0  0  0  0  0  0  0  0  0  0  0  0
    7.7793   11.7927   25.2338 C   0  0  0  0  0  0  0  0  0  0  0  0
    6.8243   12.3348   26.1068 C   0  0  0  0  0  0  0  0  0  0  0  0
    5.8959   11.4780   26.6689 C   0  0  0  0  0  0  0  0  0  0  0  0
    5.0117   11.9717   27.5419 F   0  0  0  0  0  0  0  0  0  0  0  0
    5.9075   10.1216   26.3893 C   0  0  0  0  0  0  0  0  0  0  0  0
    6.8362    9.5959   25.4871 C   0  0  0  0  0  0  0  0  0  0  0  0
    7.7552   10.4499   24.8906 C   0  0  0  0  0  0  0  0  0  0  0  0
  1  2  1  0
  2  3  1  0
  3  4  2  0
  4  5  1  0
  5  6  2  0
  5  7  1  0
  7  8  1  0
  9  8  1  1
  9 10  1  0
 11 10  1  1
 11 12  1  0
 12 13  1  0
 13 14  1  0
 14 15  1  0
 15 16  1  0
 11 17  1  0
  4 18  1  0
 18 19  2  0
 19 20  1  0
 20 21  1  0
 20 22  2  0
 22 23  1  0
 23 24  2  0
 24  2  1  0
 13  9  1  0
 16 14  1  0
 24 18  1  0
 17  9  1  0
M  END
>  <alias>  (317) 
None

>  <rmsd(smina/fragmenstein)>  (317) 
0.553

>  <smiles>  (317) 
Cn1nc(C(=O)NC[C@]23C[C@H](CN2C2CC2)C3)c2cc(F)ccc21

>  <gnina_score>  (317) 
5.98

>  <inspiration_score>  (317) 
None

>  <energy_score>  (317) 
-19.888882

>  <distance_score>  (317) 
1.09101

>  <gnina_score_min>  (317) 
6.087

>  <inchikey>  (317) 
KGWDSHPLOFXCBE-MXXVBZNESA-N

>  <exports>  (317) 
['/opt/xchem-fragalysis-2/maxwin/BulkDock/OUTPUTS/openbind_a71ev2a_c2_elabs_1LOUU54.sdf', '/opt/xchem-fragalysis-2/maxwin/BulkDock/OUTPUTS/openbind_a71ev2a_c2_elabs_1LSYIDY.sdf']

>  <name>  (317) 
P570554

>  <ref_pdb>  (317) 
A2339a

>  <subsites>  (317) 
None

>  <HIPPO Pose ID>  (317) 
570554

>  <ref_mols>  (317) 
A2339a

>  <HIPPO Compound ID>  (317) 
411585

>  <tags>  (317) 
openbind_a71ev2a_c2_elabs,syndirella_product,openbind_a71ev2a_c2_elabs_scored,BulkDock Fragalysis export,openbind_a71ev2a_c2_elabs_scored_top80percent,openbind_a71ev2a_c2_elabs_scored_6plus,openbind_a71ev2a_c2_elabs_scored_top80percent_despaghettified,syndirella_placed

>  <smina_score_min>  (317) 
-7.101

$$$$
P570558
     RDKit          3D

 24 27  0  0  0  0  0  0  0  0999 V2000
   11.2340   14.6358   19.4811 C   0  0  0  0  0  0  0  0  0  0  0  0
   11.7240   15.1380   20.7699 C   0  0  2  0  0  0  0  0  0  0  0  0
   11.8003   14.3911   22.0584 C   0  0  2  0  0  0  0  0  0  0  0  0
   11.0915   13.2771   22.5259 N   0  0  0  0  0  0  0  0  0  0  0  0
   10.5351   12.9621   23.9245 C   0  0  0  0  0  0  0  0  0  0  0  0
   10.6441   13.5432   24.9308 O   0  0  0  0  0  0  0  0  0  0  0  0
    9.6763   11.7910   23.8687 C   0  0  0  0  0  0  0  0  0  0  0  0
    9.9382   10.7549   23.0692 N   0  0  0  0  0  0  0  0  0  0  0  0
    9.1199    9.7933   23.5222 N   0  0  0  0  0  0  0  0  0  0  0  0
    9.2699    8.4718   22.9744 C   0  0  0  0  0  0  0  0  0  0  0  0
    8.2119   10.2368   24.4532 C   0  0  0  0  0  0  0  0  0  0  0  0
    7.2000    9.6114   25.1832 C   0  0  0  0  0  0  0  0  0  0  0  0
    6.3988   10.3704   26.0363 C   0  0  0  0  0  0  0  0  0  0  0  0
    6.6444   11.7213   26.1867 C   0  0  0  0  0  0  0  0  0  0  0  0
    5.9035   12.4320   27.0477 F   0  0  0  0  0  0  0  0  0  0  0  0
    7.7051   12.3324   25.5258 C   0  0  0  0  0  0  0  0  0  0  0  0
    8.4991   11.5795   24.6380 C   0  0  0  0  0  0  0  0  0  0  0  0
   10.8304   15.5956   21.8769 C   0  0  2  0  0  0  0  0  0  0  0  0
    9.3294   15.2979   22.1464 C   0  0  0  0  0  0  0  0  0  0  0  0
    8.8384   15.3554   23.4688 C   0  0  0  0  0  0  0  0  0  0  0  0
    7.4984   15.1680   23.8229 C   0  0  0  0  0  0  0  0  0  0  0  0
    6.5949   14.7789   22.8623 C   0  0  0  0  0  0  0  0  0  0  0  0
    7.0431   14.6380   21.5611 C   0  0  0  0  0  0  0  0  0  0  0  0
    8.3767   14.9283   21.2025 C   0  0  0  0  0  0  0  0  0  0  0  0
  2  1  1  6
  2  3  1  0
  3  4  1  6
  4  5  1  0
  5  6  2  0
  5  7  1  0
  7  8  2  0
  8  9  1  0
  9 10  1  0
  9 11  1  0
 11 12  2  0
 12 13  1  0
 13 14  2  0
 14 15  1  0
 14 16  1  0
 16 17  2  0
  3 18  1  0
 18 19  1  6
 19 20  2  0
 20 21  1  0
 21 22  2  0
 22 23  1  0
 23 24  2  0
 18  2  1  0
 24 19  1  0
 17  7  1  0
 17 11  1  0
M  END
>  <alias>  (318) 
None

>  <rmsd(smina/fragmenstein)>  (318) 
0.679

>  <smiles>  (318) 
C[C@@H]1[C@H](NC(=O)c2nn(C)c3ccc(F)cc23)[C@@H]1c1ccccc1

>  <gnina_score>  (318) 
6.199

>  <inspiration_score>  (318) 
None

>  <energy_score>  (318) 
-19.212022

>  <distance_score>  (318) 
0.730229

>  <gnina_score_min>  (318) 
6.187

>  <inchikey>  (318) 
XBABJQFSPCUSRK-GOPGUHFVSA-N

>  <exports>  (318) 
['/opt/xchem-fragalysis-2/maxwin/BulkDock/OUTPUTS/openbind_a71ev2a_c2_elabs_1LOUU54.sdf', '/opt/xchem-fragalysis-2/maxwin/BulkDock/OUTPUTS/openbind_a71ev2a_c2_elabs_1LSYIDY.sdf']

>  <name>  (318) 
P570558

>  <ref_pdb>  (318) 
A2339a

>  <subsites>  (318) 
None

>  <HIPPO Pose ID>  (318) 
570558

>  <ref_mols>  (318) 
A2339a

>  <HIPPO Compound ID>  (318) 
411595

>  <tags>  (318) 
openbind_a71ev2a_c2_elabs,syndirella_product,openbind_a71ev2a_c2_elabs_scored,BulkDock Fragalysis export,openbind_a71ev2a_c2_elabs_scored_top80percent,openbind_a71ev2a_c2_elabs_scored_6plus,openbind_a71ev2a_c2_elabs_scored_top80percent_despaghettified,syndirella_placed

>  <smina_score_min>  (318) 
-7.399

$$$$
P570561
     RDKit          3D

 24 27  0  0  0  0  0  0  0  0999 V2000
    9.0585    8.6961   23.5561 C   0  0  0  0  0  0  0  0  0  0  0  0
    8.7421   10.0431   23.9647 N   0  0  0  0  0  0  0  0  0  0  0  0
    9.5250   11.0332   23.5221 N   0  0  0  0  0  0  0  0  0  0  0  0
    9.1153   12.1183   24.2088 C   0  0  0  0  0  0  0  0  0  0  0  0
    9.8830   13.3638   24.1196 C   0  0  0  0  0  0  0  0  0  0  0  0
    9.5956   14.3408   24.6814 O   0  0  0  0  0  0  0  0  0  0  0  0
   11.0109   13.0862   23.1289 N   0  0  0  0  0  0  0  0  0  0  0  0
   11.9662   13.9646   22.5445 C   0  0  0  0  0  0  0  0  0  0  0  0
   11.2954   14.5253   21.3090 C   0  0  2  0  0  0  0  0  0  0  0  0
   12.1790   14.5823   20.0807 C   0  0  0  0  0  0  0  0  0  0  0  0
   11.3155   14.9839   18.8849 C   0  0  0  0  0  0  0  0  0  0  0  0
    9.9704   15.5786   19.3092 C   0  0  0  0  0  0  0  0  0  0  0  0
   10.1619   16.5491   20.3758 N   0  0  0  0  0  0  0  0  0  0  0  0
    8.9806   17.3710   20.6520 C   0  0  0  0  0  0  0  0  0  0  0  0
    9.1242   18.7838   21.0899 C   0  0  0  0  0  0  0  0  0  0  0  0
    8.6885   18.5305   19.7177 C   0  0  0  0  0  0  0  0  0  0  0  0
   10.7033   15.9105   21.5784 C   0  0  0  0  0  0  0  0  0  0  0  0
    7.9690   11.8433   24.9806 C   0  0  0  0  0  0  0  0  0  0  0  0
    7.1249   12.5892   25.8207 C   0  0  0  0  0  0  0  0  0  0  0  0
    6.1387   11.9146   26.5308 C   0  0  0  0  0  0  0  0  0  0  0  0
    5.3616   12.5989   27.3783 F   0  0  0  0  0  0  0  0  0  0  0  0
    5.9688   10.5439   26.4167 C   0  0  0  0  0  0  0  0  0  0  0  0
    6.7809    9.8007   25.5602 C   0  0  0  0  0  0  0  0  0  0  0  0
    7.7796   10.4688   24.8487 C   0  0  0  0  0  0  0  0  0  0  0  0
  1  2  1  0
  2  3  1  0
  3  4  2  0
  4  5  1  0
  5  6  2  0
  5  7  1  0
  7  8  1  0
  9  8  1  1
  9 10  1  0
 10 11  1  0
 11 12  1  0
 12 13  1  0
 13 14  1  0
 14 15  1  0
 15 16  1  0
 13 17  1  0
  4 18  1  0
 18 19  2  0
 19 20  1  0
 20 21  1  0
 20 22  2  0
 22 23  1  0
 23 24  2  0
 24  2  1  0
 17  9  1  0
 24 18  1  0
 16 14  1  0
M  END
>  <alias>  (319) 
None

>  <rmsd(smina/fragmenstein)>  (319) 
0.266

>  <smiles>  (319) 
Cn1nc(C(=O)NC[C@@H]2CCCN(C3CC3)C2)c2cc(F)ccc21

>  <gnina_score>  (319) 
5.974

>  <inspiration_score>  (319) 
None

>  <energy_score>  (319) 
-33.823874

>  <distance_score>  (319) 
0.80014

>  <gnina_score_min>  (319) 
6.035

>  <inchikey>  (319) 
IYEVRHYOGTYBRB-LBPRGKRZSA-N

>  <exports>  (319) 
['/opt/xchem-fragalysis-2/maxwin/BulkDock/OUTPUTS/openbind_a71ev2a_c2_elabs_1LOUU54.sdf', '/opt/xchem-fragalysis-2/maxwin/BulkDock/OUTPUTS/openbind_a71ev2a_c2_elabs_1LSYIDY.sdf']

>  <name>  (319) 
P570561

>  <ref_pdb>  (319) 
A2339a

>  <subsites>  (319) 
None

>  <HIPPO Pose ID>  (319) 
570561

>  <ref_mols>  (319) 
A2339a

>  <HIPPO Compound ID>  (319) 
411604

>  <tags>  (319) 
openbind_a71ev2a_c2_elabs,syndirella_product,openbind_a71ev2a_c2_elabs_scored,BulkDock Fragalysis export,openbind_a71ev2a_c2_elabs_scored_top80percent,openbind_a71ev2a_c2_elabs_scored_6plus,openbind_a71ev2a_c2_elabs_scored_top80percent_despaghettified,syndirella_placed

>  <smina_score_min>  (319) 
-6.161

$$$$
P570562
     RDKit          3D

 24 27  0  0  0  0  0  0  0  0999 V2000
    9.4010    8.6766   23.3766 C   0  0  0  0  0  0  0  0  0  0  0  0
    9.1458   10.0564   23.7127 N   0  0  0  0  0  0  0  0  0  0  0  0
    9.9393   10.9896   23.1752 N   0  0  0  0  0  0  0  0  0  0  0  0
    9.6397   12.1240   23.8391 C   0  0  0  0  0  0  0  0  0  0  0  0
   10.4371   13.3453   23.5793 C   0  0  0  0  0  0  0  0  0  0  0  0
   10.3906   14.3000   24.2526 O   0  0  0  0  0  0  0  0  0  0  0  0
   11.1885   13.0902   22.2505 N   0  0  0  0  0  0  0  0  0  0  0  0
   11.9435   13.9642   21.4433 C   0  0  2  0  0  0  0  0  0  0  0  0
   12.2155   15.4069   21.5802 C   0  0  0  0  0  0  0  0  0  0  0  0
   11.1881   14.9513   20.5515 C   0  0  1  0  0  0  0  0  0  0  0  0
   11.5333   14.9355   19.0894 C   0  0  0  0  0  0  0  0  0  0  0  0
    9.7817   15.3983   20.8791 C   0  0  0  0  0  0  0  0  0  0  0  0
    8.7728   14.5268   21.3120 C   0  0  0  0  0  0  0  0  0  0  0  0
    7.5919   14.9479   21.9051 C   0  0  0  0  0  0  0  0  0  0  0  0
    7.3917   16.3004   22.0302 C   0  0  0  0  0  0  0  0  0  0  0  0
    8.3208   17.1876   21.4765 C   0  0  0  0  0  0  0  0  0  0  0  0
    9.4915   16.7477   20.9006 C   0  0  0  0  0  0  0  0  0  0  0  0
    8.4797   11.9374   24.6464 C   0  0  0  0  0  0  0  0  0  0  0  0
    7.6473   12.7529   25.4382 C   0  0  0  0  0  0  0  0  0  0  0  0
    6.6118   12.1512   26.1583 C   0  0  0  0  0  0  0  0  0  0  0  0
    5.8472   12.8969   26.9666 F   0  0  0  0  0  0  0  0  0  0  0  0
    6.3759   10.7851   26.1004 C   0  0  0  0  0  0  0  0  0  0  0  0
    7.1704    9.9676   25.2993 C   0  0  0  0  0  0  0  0  0  0  0  0
    8.2060   10.5684   24.5717 C   0  0  0  0  0  0  0  0  0  0  0  0
  1  2  1  0
  2  3  1  0
  3  4  2  0
  4  5  1  0
  5  6  2  0
  5  7  1  0
  8  7  1  1
  8  9  1  0
  9 10  1  0
 10 11  1  6
 10 12  1  0
 12 13  2  0
 13 14  1  0
 14 15  2  0
 15 16  1  0
 16 17  2  0
  4 18  1  0
 18 19  2  0
 19 20  1  0
 20 21  1  0
 20 22  2  0
 22 23  1  0
 23 24  2  0
 24  2  1  0
 10  8  1  0
 17 12  1  0
 24 18  1  0
M  END
>  <alias>  (320) 
None

>  <rmsd(smina/fragmenstein)>  (320) 
0.667

>  <smiles>  (320) 
Cn1nc(C(=O)N[C@@H]2C[C@]2(C)c2ccccc2)c2cc(F)ccc21

>  <gnina_score>  (320) 
6.122

>  <inspiration_score>  (320) 
None

>  <energy_score>  (320) 
-22.408919

>  <distance_score>  (320) 
0.620137

>  <gnina_score_min>  (320) 
6.143

>  <inchikey>  (320) 
LTSKTZZACCMZRE-VQIMIIECSA-N

>  <exports>  (320) 
['/opt/xchem-fragalysis-2/maxwin/BulkDock/OUTPUTS/openbind_a71ev2a_c2_elabs_1LOUU54.sdf', '/opt/xchem-fragalysis-2/maxwin/BulkDock/OUTPUTS/openbind_a71ev2a_c2_elabs_1LSYIDY.sdf']

>  <name>  (320) 
P570562

>  <ref_pdb>  (320) 
A2339a

>  <subsites>  (320) 
None

>  <HIPPO Pose ID>  (320) 
570562

>  <ref_mols>  (320) 
A2339a

>  <HIPPO Compound ID>  (320) 
411607

>  <tags>  (320) 
openbind_a71ev2a_c2_elabs,syndirella_product,openbind_a71ev2a_c2_elabs_scored,BulkDock Fragalysis export,openbind_a71ev2a_c2_elabs_scored_top80percent,openbind_a71ev2a_c2_elabs_scored_6plus,openbind_a71ev2a_c2_elabs_scored_top80percent_despaghettified,syndirella_placed

>  <smina_score_min>  (320) 
-6.69

$$$$
P570563
     RDKit          3D

 24 27  0  0  0  0  0  0  0  0999 V2000
    9.2795    8.7540   23.1704 C   0  0  0  0  0  0  0  0  0  0  0  0
    9.0362   10.0494   23.7592 N   0  0  0  0  0  0  0  0  0  0  0  0
    9.8154   11.0698   23.3728 N   0  0  0  0  0  0  0  0  0  0  0  0
    9.3661   12.1213   24.0778 C   0  0  0  0  0  0  0  0  0  0  0  0
    9.9738   13.4387   23.9152 C   0  0  0  0  0  0  0  0  0  0  0  0
    9.7003   14.3364   24.6059 O   0  0  0  0  0  0  0  0  0  0  0  0
   10.8748   13.3758   22.6762 N   0  0  0  0  0  0  0  0  0  0  0  0
   11.5399   14.3945   21.9815 C   0  0  1  0  0  0  0  0  0  0  0  0
   12.1923   14.4121   20.6436 C   0  0  0  0  0  0  0  0  0  0  0  0
   10.7341   14.6354   20.6890 C   0  0  1  0  0  0  0  0  0  0  0  0
    9.9062   13.5902   20.3312 F   0  0  0  0  0  0  0  0  0  0  0  0
    9.9519   15.8495   20.6632 C   0  0  0  0  0  0  0  0  0  0  0  0
    8.9140   15.9964   21.5765 C   0  0  0  0  0  0  0  0  0  0  0  0
    8.2208   17.1740   21.6317 C   0  0  0  0  0  0  0  0  0  0  0  0
    8.5859   18.2253   20.8092 C   0  0  0  0  0  0  0  0  0  0  0  0
    9.4475   17.9869   19.7773 C   0  0  0  0  0  0  0  0  0  0  0  0
   10.1106   16.7848   19.6738 C   0  0  0  0  0  0  0  0  0  0  0  0
    8.2221   11.7914   24.8417 C   0  0  0  0  0  0  0  0  0  0  0  0
    7.3194   12.4949   25.6627 C   0  0  0  0  0  0  0  0  0  0  0  0
    6.3324   11.7783   26.3324 C   0  0  0  0  0  0  0  0  0  0  0  0
    5.5027   12.4226   27.1628 F   0  0  0  0  0  0  0  0  0  0  0  0
    6.2189   10.4036   26.1960 C   0  0  0  0  0  0  0  0  0  0  0  0
    7.0857    9.7067   25.3522 C   0  0  0  0  0  0  0  0  0  0  0  0
    8.0703   10.4195   24.6662 C   0  0  0  0  0  0  0  0  0  0  0  0
  1  2  1  0
  2  3  1  0
  3  4  2  0
  4  5  1  0
  5  6  2  0
  5  7  1  0
  8  7  1  6
  8  9  1  0
  9 10  1  0
 10 11  1  6
 10 12  1  0
 12 13  2  0
 13 14  1  0
 14 15  2  0
 15 16  1  0
 16 17  2  0
  4 18  1  0
 18 19  2  0
 19 20  1  0
 20 21  1  0
 20 22  2  0
 22 23  1  0
 23 24  2  0
 24  2  1  0
 10  8  1  0
 17 12  1  0
 24 18  1  0
M  END
>  <alias>  (321) 
None

>  <rmsd(smina/fragmenstein)>  (321) 
0.368

>  <smiles>  (321) 
Cn1nc(C(=O)N[C@H]2C[C@]2(F)c2ccccc2)c2cc(F)ccc21

>  <gnina_score>  (321) 
5.831

>  <inspiration_score>  (321) 
None

>  <energy_score>  (321) 
-11.217044

>  <distance_score>  (321) 
0.441161

>  <gnina_score_min>  (321) 
5.854

>  <inchikey>  (321) 
YWNBXPYMULCCDX-YJBOKZPZSA-N

>  <exports>  (321) 
['/opt/xchem-fragalysis-2/maxwin/BulkDock/OUTPUTS/openbind_a71ev2a_c2_elabs_1LOUU54.sdf', '/opt/xchem-fragalysis-2/maxwin/BulkDock/OUTPUTS/openbind_a71ev2a_c2_elabs_1LSYIDY.sdf']

>  <name>  (321) 
P570563

>  <ref_pdb>  (321) 
A2339a

>  <subsites>  (321) 
None

>  <HIPPO Pose ID>  (321) 
570563

>  <ref_mols>  (321) 
A2339a

>  <HIPPO Compound ID>  (321) 
411610

>  <tags>  (321) 
openbind_a71ev2a_c2_elabs,syndirella_product,openbind_a71ev2a_c2_elabs_scored,BulkDock Fragalysis export,openbind_a71ev2a_c2_elabs_scored_top80percent,openbind_a71ev2a_c2_elabs_scored_top80percent_despaghettified,syndirella_placed

>  <smina_score_min>  (321) 
-5.177

$$$$
P570568
     RDKit          3D

 24 27  0  0  0  0  0  0  0  0999 V2000
    9.2572    8.4678   23.0974 C   0  0  0  0  0  0  0  0  0  0  0  0
    9.0918    9.7497   23.7317 N   0  0  0  0  0  0  0  0  0  0  0  0
    9.8903   10.7526   23.3271 N   0  0  0  0  0  0  0  0  0  0  0  0
    9.5125   11.7772   24.0860 C   0  0  0  0  0  0  0  0  0  0  0  0
    9.9548   13.1259   23.9119 C   0  0  0  0  0  0  0  0  0  0  0  0
   10.7622   13.6805   24.5375 O   0  0  0  0  0  0  0  0  0  0  0  0
    9.0431   13.6325   22.8056 N   0  0  0  0  0  0  0  0  0  0  0  0
    8.8604   14.9045   22.3065 C   0  0  0  0  0  0  0  0  0  0  0  0
    7.6562   15.4292   23.1130 C   0  0  0  0  0  0  0  0  0  0  0  0
    7.8574   15.8230   24.4612 C   0  0  0  0  0  0  0  0  0  0  0  0
    6.8246   16.1623   25.3417 C   0  0  0  0  0  0  0  0  0  0  0  0
    5.5129   16.0063   24.9384 C   0  0  0  0  0  0  0  0  0  0  0  0
    5.2589   15.4787   23.6798 C   0  0  0  0  0  0  0  0  0  0  0  0
    6.3067   15.1947   22.7873 C   0  0  0  0  0  0  0  0  0  0  0  0
    5.8555   14.2954   21.3897 Cl  0  0  0  0  0  0  0  0  0  0  0  0
    9.1309   15.1749   20.8629 C   0  0  0  0  0  0  0  0  0  0  0  0
   10.0715   15.7025   21.8823 C   0  0  0  0  0  0  0  0  0  0  0  0
    8.3422   11.5004   24.8350 C   0  0  0  0  0  0  0  0  0  0  0  0
    7.4505   12.2526   25.6282 C   0  0  0  0  0  0  0  0  0  0  0  0
    6.4094   11.5982   26.2724 C   0  0  0  0  0  0  0  0  0  0  0  0
    5.5929   12.2899   27.0774 F   0  0  0  0  0  0  0  0  0  0  0  0
    6.2471   10.2328   26.1437 C   0  0  0  0  0  0  0  0  0  0  0  0
    7.1109    9.5026   25.3233 C   0  0  0  0  0  0  0  0  0  0  0  0
    8.1339   10.1502   24.6388 C   0  0  0  0  0  0  0  0  0  0  0  0
  1  2  1  0
  2  3  1  0
  3  4  2  0
  4  5  1  0
  5  6  2  0
  5  7  1  0
  7  8  1  0
  8  9  1  0
  9 10  2  0
 10 11  1  0
 11 12  2  0
 12 13  1  0
 13 14  2  0
 14 15  1  0
  8 16  1  0
 16 17  1  0
  4 18  1  0
 18 19  2  0
 19 20  1  0
 20 21  1  0
 20 22  2  0
 22 23  1  0
 23 24  2  0
 24  2  1  0
 17  8  1  0
 24 18  1  0
 14  9  1  0
M  END
>  <alias>  (322) 
None

>  <rmsd(smina/fragmenstein)>  (322) 
0.363

>  <smiles>  (322) 
Cn1nc(C(=O)NC2(c3ccccc3Cl)CC2)c2cc(F)ccc21

>  <gnina_score>  (322) 
6.033

>  <inspiration_score>  (322) 
None

>  <energy_score>  (322) 
-31.154113

>  <distance_score>  (322) 
1.122837

>  <gnina_score_min>  (322) 
5.94

>  <inchikey>  (322) 
CSAZVNPAOQNJOJ-UHFFFAOYSA-N

>  <exports>  (322) 
['/opt/xchem-fragalysis-2/maxwin/BulkDock/OUTPUTS/openbind_a71ev2a_c2_elabs_1LOUU54.sdf', '/opt/xchem-fragalysis-2/maxwin/BulkDock/OUTPUTS/openbind_a71ev2a_c2_elabs_1LSYIDY.sdf']

>  <name>  (322) 
P570568

>  <ref_pdb>  (322) 
A2339a

>  <subsites>  (322) 
None

>  <HIPPO Pose ID>  (322) 
570568

>  <ref_mols>  (322) 
A2339a

>  <HIPPO Compound ID>  (322) 
411613

>  <tags>  (322) 
openbind_a71ev2a_c2_elabs,syndirella_product,openbind_a71ev2a_c2_elabs_scored,BulkDock Fragalysis export,openbind_a71ev2a_c2_elabs_scored_top80percent,openbind_a71ev2a_c2_elabs_scored_top80percent_despaghettified,syndirella_placed

>  <smina_score_min>  (322) 
-6.768

$$$$
P570569
     RDKit          3D

 24 27  0  0  0  0  0  0  0  0999 V2000
   11.5658   14.4773   23.4634 C   0  0  0  0  0  0  0  0  0  0  0  0
   11.4649   14.8267   22.0078 C   0  0  0  0  0  0  0  0  0  0  0  0
   12.6399   14.8530   21.2979 C   0  0  0  0  0  0  0  0  0  0  0  0
   12.6370   14.8176   19.9181 C   0  0  0  0  0  0  0  0  0  0  0  0
   11.4896   15.0306   19.1999 C   0  0  0  0  0  0  0  0  0  0  0  0
   10.3227   15.1965   19.9063 C   0  0  0  0  0  0  0  0  0  0  0  0
   10.2604   15.0030   21.3070 C   0  0  0  0  0  0  0  0  0  0  0  0
    8.9385   14.9043   22.0120 C   0  0  0  0  0  0  0  0  0  0  0  0
    8.8913   13.8368   22.8923 N   0  0  0  0  0  0  0  0  0  0  0  0
    8.6121   13.7983   24.3811 C   0  0  0  0  0  0  0  0  0  0  0  0
    8.4495   14.6617   25.1402 O   0  0  0  0  0  0  0  0  0  0  0  0
    8.4909   12.3783   24.6494 C   0  0  0  0  0  0  0  0  0  0  0  0
    9.1210   11.4561   23.8900 N   0  0  0  0  0  0  0  0  0  0  0  0
    8.5621   10.2910   24.2657 N   0  0  0  0  0  0  0  0  0  0  0  0
    9.0746    9.0623   23.6966 C   0  0  0  0  0  0  0  0  0  0  0  0
    7.5489   10.4675   25.1786 C   0  0  0  0  0  0  0  0  0  0  0  0
    6.6344    9.6079   25.7716 C   0  0  0  0  0  0  0  0  0  0  0  0
    5.7222   10.1244   26.6941 C   0  0  0  0  0  0  0  0  0  0  0  0
    5.7028   11.4799   26.9742 C   0  0  0  0  0  0  0  0  0  0  0  0
    4.8213   11.9693   27.8497 F   0  0  0  0  0  0  0  0  0  0  0  0
    6.5813   12.3545   26.3662 C   0  0  0  0  0  0  0  0  0  0  0  0
    7.5225   11.8218   25.4778 C   0  0  0  0  0  0  0  0  0  0  0  0
    8.0270   16.0850   21.9464 C   0  0  0  0  0  0  0  0  0  0  0  0
    7.6640   14.8378   21.2272 C   0  0  0  0  0  0  0  0  0  0  0  0
  1  2  1  0
  2  3  2  0
  3  4  1  0
  4  5  2  0
  5  6  1  0
  6  7  2  0
  7  8  1  0
  8  9  1  0
  9 10  1  0
 10 11  2  0
 10 12  1  0
 12 13  2  0
 13 14  1  0
 14 15  1  0
 14 16  1  0
 16 17  2  0
 17 18  1  0
 18 19  2  0
 19 20  1  0
 19 21  1  0
 21 22  2  0
  8 23  1  0
 23 24  1  0
  7  2  1  0
 24  8  1  0
 22 12  1  0
 22 16  1  0
M  END
>  <alias>  (323) 
None

>  <rmsd(smina/fragmenstein)>  (323) 
0.335

>  <smiles>  (323) 
Cc1ccccc1C1(NC(=O)c2nn(C)c3ccc(F)cc23)CC1

>  <gnina_score>  (323) 
5.758

>  <inspiration_score>  (323) 
None

>  <energy_score>  (323) 
-17.094005

>  <distance_score>  (323) 
1.813485

>  <gnina_score_min>  (323) 
5.728

>  <inchikey>  (323) 
YRCCZMJBQKLGQV-UHFFFAOYSA-N

>  <exports>  (323) 
['/opt/xchem-fragalysis-2/maxwin/BulkDock/OUTPUTS/openbind_a71ev2a_c2_elabs_1LOUU54.sdf', '/opt/xchem-fragalysis-2/maxwin/BulkDock/OUTPUTS/openbind_a71ev2a_c2_elabs_1LSYIDY.sdf']

>  <name>  (323) 
P570569

>  <ref_pdb>  (323) 
A2339a

>  <subsites>  (323) 
None

>  <HIPPO Pose ID>  (323) 
570569

>  <ref_mols>  (323) 
A2339a

>  <HIPPO Compound ID>  (323) 
411614

>  <tags>  (323) 
openbind_a71ev2a_c2_elabs,syndirella_product,openbind_a71ev2a_c2_elabs_scored,BulkDock Fragalysis export,openbind_a71ev2a_c2_elabs_scored_top80percent,openbind_a71ev2a_c2_elabs_scored_top80percent_despaghettified,syndirella_placed

>  <smina_score_min>  (323) 
-7.741

$$$$
P570571
     RDKit          3D

 24 27  0  0  0  0  0  0  0  0999 V2000
    8.7631    8.8683   23.7973 C   0  0  0  0  0  0  0  0  0  0  0  0
    8.2993   10.1271   24.3350 N   0  0  0  0  0  0  0  0  0  0  0  0
    8.9888   11.2274   24.0191 N   0  0  0  0  0  0  0  0  0  0  0  0
    8.4298   12.1948   24.7777 C   0  0  0  0  0  0  0  0  0  0  0  0
    8.9826   13.5344   24.7863 C   0  0  0  0  0  0  0  0  0  0  0  0
    8.5826   14.4355   25.3915 O   0  0  0  0  0  0  0  0  0  0  0  0
   10.0863   13.4537   23.7725 N   0  0  0  0  0  0  0  0  0  0  0  0
   10.8748   14.4541   23.2093 C   0  0  1  0  0  0  0  0  0  0  0  0
   12.2582   13.9151   22.9914 C   0  0  0  0  0  0  0  0  0  0  0  0
   12.9833   14.7639   21.9945 C   0  0  0  0  0  0  0  0  0  0  0  0
   12.2183   15.9380   21.5393 C   0  0  0  0  0  0  0  0  0  0  0  0
   11.0065   15.4281   21.0144 N   0  0  0  0  0  0  0  0  0  0  0  0
   10.6602   15.8827   19.7432 C   0  0  0  0  0  0  0  0  0  0  0  0
    9.6428   16.9755   19.7488 C   0  0  0  0  0  0  0  0  0  0  0  0
    9.3799   15.6257   19.1108 C   0  0  0  0  0  0  0  0  0  0  0  0
   10.1733   14.7323   21.8754 C   0  0  0  0  0  0  0  0  0  0  0  0
    9.0146   14.3801   21.6563 O   0  0  0  0  0  0  0  0  0  0  0  0
    7.3533   11.7393   25.5196 C   0  0  0  0  0  0  0  0  0  0  0  0
    6.4756   12.3435   26.4244 C   0  0  0  0  0  0  0  0  0  0  0  0
    5.5675   11.5330   27.0714 C   0  0  0  0  0  0  0  0  0  0  0  0
    4.7528   12.0842   27.9740 F   0  0  0  0  0  0  0  0  0  0  0  0
    5.4967   10.1759   26.8119 C   0  0  0  0  0  0  0  0  0  0  0  0
    6.3330    9.5927   25.8586 C   0  0  0  0  0  0  0  0  0  0  0  0
    7.2925   10.3806   25.2380 C   0  0  0  0  0  0  0  0  0  0  0  0
  1  2  1  0
  2  3  1  0
  3  4  2  0
  4  5  1  0
  5  6  2  0
  5  7  1  0
  8  7  1  6
  8  9  1  0
  9 10  1  0
 10 11  1  0
 11 12  1  0
 12 13  1  0
 13 14  1  0
 14 15  1  0
 12 16  1  0
 16 17  2  0
  4 18  1  0
 18 19  2  0
 19 20  1  0
 20 21  1  0
 20 22  2  0
 22 23  1  0
 23 24  2  0
 24  2  1  0
 16  8  1  0
 24 18  1  0
 15 13  1  0
M  END
>  <alias>  (324) 
None

>  <rmsd(smina/fragmenstein)>  (324) 
0.666

>  <smiles>  (324) 
Cn1nc(C(=O)N[C@H]2CCCN(C3CC3)C2=O)c2cc(F)ccc21

>  <gnina_score>  (324) 
6.003

>  <inspiration_score>  (324) 
None

>  <energy_score>  (324) 
-0.55175

>  <distance_score>  (324) 
1.468173

>  <gnina_score_min>  (324) 
5.928

>  <inchikey>  (324) 
NHGMJYBYBOGVSX-ZDUSSCGKSA-N

>  <exports>  (324) 
['/opt/xchem-fragalysis-2/maxwin/BulkDock/OUTPUTS/openbind_a71ev2a_c2_elabs_1LOUU54.sdf', '/opt/xchem-fragalysis-2/maxwin/BulkDock/OUTPUTS/openbind_a71ev2a_c2_elabs_1LSYIDY.sdf']

>  <name>  (324) 
P570571

>  <ref_pdb>  (324) 
A2339a

>  <subsites>  (324) 
None

>  <HIPPO Pose ID>  (324) 
570571

>  <ref_mols>  (324) 
A2339a

>  <HIPPO Compound ID>  (324) 
411620

>  <tags>  (324) 
openbind_a71ev2a_c2_elabs,syndirella_product,openbind_a71ev2a_c2_elabs_scored,BulkDock Fragalysis export,openbind_a71ev2a_c2_elabs_scored_top80percent,openbind_a71ev2a_c2_elabs_scored_top80percent_despaghettified,syndirella_placed

>  <smina_score_min>  (324) 
-5.976

$$$$
P570572
     RDKit          3D

 24 26  0  0  0  0  0  0  0  0999 V2000
    8.8566    8.8579   23.7319 C   0  0  0  0  0  0  0  0  0  0  0  0
    8.3016   10.1069   24.2023 N   0  0  0  0  0  0  0  0  0  0  0  0
    8.8357   11.2471   23.7410 N   0  0  0  0  0  0  0  0  0  0  0  0
    8.1842   12.2011   24.4370 C   0  0  0  0  0  0  0  0  0  0  0  0
    8.5856   13.5780   24.3809 C   0  0  0  0  0  0  0  0  0  0  0  0
    8.1115   14.4289   25.0075 O   0  0  0  0  0  0  0  0  0  0  0  0
    9.7657   13.5940   23.4418 N   0  0  0  0  0  0  0  0  0  0  0  0
   10.6591   14.6010   23.1407 C   0  0  0  0  0  0  0  0  0  0  0  0
   10.0726   15.6586   22.2583 C   0  0  0  0  0  0  0  0  0  0  0  0
    8.8861   15.9539   22.2872 O   0  0  0  0  0  0  0  0  0  0  0  0
   10.9624   16.1635   21.3837 O   0  0  0  0  0  0  0  0  0  0  0  0
   11.0116   15.3818   20.1966 C   0  0  0  0  0  0  0  0  0  0  0  0
   10.5340   16.2328   19.0402 C   0  0  0  0  0  0  0  0  0  0  0  0
   10.1086   14.1813   20.1817 C   0  0  0  0  0  0  0  0  0  0  0  0
   12.4318   14.8544   20.0271 C   0  0  0  0  0  0  0  0  0  0  0  0
   11.4380   14.9424   24.3614 C   0  0  0  0  0  0  0  0  0  0  0  0
   12.1382   14.3364   23.1812 C   0  0  0  0  0  0  0  0  0  0  0  0
    7.2398   11.6997   25.3152 C   0  0  0  0  0  0  0  0  0  0  0  0
    6.3793   12.2773   26.2566 C   0  0  0  0  0  0  0  0  0  0  0  0
    5.5862   11.4360   27.0054 C   0  0  0  0  0  0  0  0  0  0  0  0
    4.7873   11.9678   27.9330 F   0  0  0  0  0  0  0  0  0  0  0  0
    5.6109   10.0683   26.8104 C   0  0  0  0  0  0  0  0  0  0  0  0
    6.4575    9.5115   25.8497 C   0  0  0  0  0  0  0  0  0  0  0  0
    7.3111   10.3309   25.1319 C   0  0  0  0  0  0  0  0  0  0  0  0
  1  2  1  0
  2  3  1  0
  3  4  2  0
  4  5  1  0
  5  6  2  0
  5  7  1  0
  7  8  1  0
  8  9  1  0
  9 10  2  0
  9 11  1  0
 11 12  1  0
 12 13  1  0
 12 14  1  0
 12 15  1  0
  8 16  1  0
 16 17  1  0
  4 18  1  0
 18 19  2  0
 19 20  1  0
 20 21  1  0
 20 22  2  0
 22 23  1  0
 23 24  2  0
 24  2  1  0
 17  8  1  0
 24 18  1  0
M  END
>  <alias>  (325) 
None

>  <rmsd(smina/fragmenstein)>  (325) 
1.024

>  <smiles>  (325) 
Cn1nc(C(=O)NC2(C(=O)OC(C)(C)C)CC2)c2cc(F)ccc21

>  <gnina_score>  (325) 
5.589

>  <inspiration_score>  (325) 
None

>  <energy_score>  (325) 
-0.524004

>  <distance_score>  (325) 
1.683856

>  <gnina_score_min>  (325) 
5.363

>  <inchikey>  (325) 
SUSLUTXJEWSUSB-UHFFFAOYSA-N

>  <exports>  (325) 
['/opt/xchem-fragalysis-2/maxwin/BulkDock/OUTPUTS/openbind_a71ev2a_c2_elabs_1LOUU54.sdf', '/opt/xchem-fragalysis-2/maxwin/BulkDock/OUTPUTS/openbind_a71ev2a_c2_elabs_1LSYIDY.sdf']

>  <name>  (325) 
P570572

>  <ref_pdb>  (325) 
A2339a

>  <subsites>  (325) 
None

>  <HIPPO Pose ID>  (325) 
570572

>  <ref_mols>  (325) 
A2339a

>  <HIPPO Compound ID>  (325) 
411631

>  <tags>  (325) 
openbind_a71ev2a_c2_elabs,syndirella_product,openbind_a71ev2a_c2_elabs_scored,BulkDock Fragalysis export,openbind_a71ev2a_c2_elabs_scored_top80percent,openbind_a71ev2a_c2_elabs_scored_top80percent_despaghettified,syndirella_placed

>  <smina_score_min>  (325) 
-5.662

$$$$
P570577
     RDKit          3D

 24 27  0  0  0  0  0  0  0  0999 V2000
    9.2360    8.5376   23.0163 C   0  0  0  0  0  0  0  0  0  0  0  0
    9.0750    9.8507   23.5856 N   0  0  0  0  0  0  0  0  0  0  0  0
    9.9274   10.8113   23.1965 N   0  0  0  0  0  0  0  0  0  0  0  0
    9.6550   11.8257   24.0241 C   0  0  0  0  0  0  0  0  0  0  0  0
   10.5869   12.9335   24.2047 C   0  0  0  0  0  0  0  0  0  0  0  0
   10.5736   13.5459   25.1970 O   0  0  0  0  0  0  0  0  0  0  0  0
   11.3942   13.1434   22.9163 N   0  0  0  0  0  0  0  0  0  0  0  0
   12.2700   14.1848   22.5425 C   0  0  1  0  0  0  0  0  0  0  0  0
   12.3997   14.6312   21.1299 C   0  0  0  0  0  0  0  0  0  0  0  0
   11.5519   15.4582   22.0566 C   0  0  1  0  0  0  0  0  0  0  0  0
   10.0407   15.3854   22.1347 C   0  0  0  0  0  0  0  0  0  0  0  0
    9.3940   15.3778   23.3868 C   0  0  0  0  0  0  0  0  0  0  0  0
    8.0333   15.1330   23.5627 C   0  0  0  0  0  0  0  0  0  0  0  0
    7.2925   14.7636   22.4717 C   0  0  0  0  0  0  0  0  0  0  0  0
    7.9116   14.7779   21.2283 C   0  0  0  0  0  0  0  0  0  0  0  0
    9.2314   15.1941   21.0374 C   0  0  0  0  0  0  0  0  0  0  0  0
    9.9355   15.5667   19.3174 Br  0  0  0  0  0  0  0  0  0  0  0  0
    8.4339   11.6229   24.7213 C   0  0  0  0  0  0  0  0  0  0  0  0
    7.6145   12.3697   25.5925 C   0  0  0  0  0  0  0  0  0  0  0  0
    6.5481   11.7448   26.2309 C   0  0  0  0  0  0  0  0  0  0  0  0
    5.7871   12.4440   27.0832 F   0  0  0  0  0  0  0  0  0  0  0  0
    6.3147   10.3929   26.0667 C   0  0  0  0  0  0  0  0  0  0  0  0
    7.1260    9.6462   25.2119 C   0  0  0  0  0  0  0  0  0  0  0  0
    8.1491   10.2823   24.5068 C   0  0  0  0  0  0  0  0  0  0  0  0
  1  2  1  0
  2  3  1  0
  3  4  2  0
  4  5  1  0
  5  6  2  0
  5  7  1  0
  8  7  1  6
  8  9  1  0
  9 10  1  0
 10 11  1  6
 11 12  2  0
 12 13  1  0
 13 14  2  0
 14 15  1  0
 15 16  2  0
 16 17  1  0
  4 18  1  0
 18 19  2  0
 19 20  1  0
 20 21  1  0
 20 22  2  0
 22 23  1  0
 23 24  2  0
 24  2  1  0
 10  8  1  0
 16 11  1  0
 24 18  1  0
M  END
>  <alias>  (326) 
None

>  <rmsd(smina/fragmenstein)>  (326) 
0.353

>  <smiles>  (326) 
Cn1nc(C(=O)N[C@H]2C[C@H]2c2ccccc2Br)c2cc(F)ccc21

>  <gnina_score>  (326) 
6.403

>  <inspiration_score>  (326) 
None

>  <energy_score>  (326) 
-12.786797

>  <distance_score>  (326) 
0.900274

>  <gnina_score_min>  (326) 
6.33

>  <inchikey>  (326) 
VXZSPZITTTYGBD-WFASDCNBSA-N

>  <exports>  (326) 
['/opt/xchem-fragalysis-2/maxwin/BulkDock/OUTPUTS/openbind_a71ev2a_c2_elabs_1LOUU54.sdf', '/opt/xchem-fragalysis-2/maxwin/BulkDock/OUTPUTS/openbind_a71ev2a_c2_elabs_1LSYIDY.sdf']

>  <name>  (326) 
P570577

>  <ref_pdb>  (326) 
A2339a

>  <subsites>  (326) 
None

>  <HIPPO Pose ID>  (326) 
570577

>  <ref_mols>  (326) 
A2339a

>  <HIPPO Compound ID>  (326) 
411642

>  <tags>  (326) 
openbind_a71ev2a_c2_elabs,syndirella_product,openbind_a71ev2a_c2_elabs_scored,BulkDock Fragalysis export,openbind_a71ev2a_c2_elabs_scored_top80percent,openbind_a71ev2a_c2_elabs_scored_6plus,openbind_a71ev2a_c2_elabs_scored_top80percent_despaghettified,syndirella_placed

>  <smina_score_min>  (326) 
-6.013

$$$$
P570580
     RDKit          3D

 24 27  0  0  0  0  0  0  0  0999 V2000
    8.6556   18.2478   20.3953 C   0  0  0  0  0  0  0  0  0  0  0  0
    9.7898   17.3221   20.2895 C   0  0  2  0  0  0  0  0  0  0  0  0
   10.0044   16.3672   19.1356 C   0  0  0  0  0  0  0  0  0  0  0  0
    9.6357   15.8404   20.4666 C   0  0  1  0  0  0  0  0  0  0  0  0
   10.5898   15.1109   21.1732 N   0  0  0  0  0  0  0  0  0  0  0  0
   10.9570   15.5339   22.4843 C   0  0  0  0  0  0  0  0  0  0  0  0
   11.7354   14.3475   22.9722 C   0  0  1  0  0  0  0  0  0  0  0  0
   10.8121   13.3475   23.3894 N   0  0  0  0  0  0  0  0  0  0  0  0
    9.6713   13.4121   24.3926 C   0  0  0  0  0  0  0  0  0  0  0  0
    9.3408   14.2689   25.1036 O   0  0  0  0  0  0  0  0  0  0  0  0
    8.9659   12.1414   24.3201 C   0  0  0  0  0  0  0  0  0  0  0  0
    9.4294   11.1293   23.5649 N   0  0  0  0  0  0  0  0  0  0  0  0
    8.7116   10.0706   23.9726 N   0  0  0  0  0  0  0  0  0  0  0  0
    9.1237    8.7580   23.5325 C   0  0  0  0  0  0  0  0  0  0  0  0
    7.7200   10.4083   24.8671 C   0  0  0  0  0  0  0  0  0  0  0  0
    6.7655    9.6709   25.5647 C   0  0  0  0  0  0  0  0  0  0  0  0
    5.9126   10.3350   26.4480 C   0  0  0  0  0  0  0  0  0  0  0  0
    6.0024   11.7073   26.6069 C   0  0  0  0  0  0  0  0  0  0  0  0
    5.1922   12.3243   27.4740 F   0  0  0  0  0  0  0  0  0  0  0  0
    6.9486   12.4529   25.9217 C   0  0  0  0  0  0  0  0  0  0  0  0
    7.8258   11.7806   25.0541 C   0  0  0  0  0  0  0  0  0  0  0  0
   12.5053   13.9986   21.7305 C   0  0  0  0  0  0  0  0  0  0  0  0
   11.6337   14.3977   20.5942 C   0  0  0  0  0  0  0  0  0  0  0  0
   11.8834   14.1901   19.4186 O   0  0  0  0  0  0  0  0  0  0  0  0
  2  1  1  6
  2  3  1  0
  3  4  1  0
  4  5  1  1
  5  6  1  0
  6  7  1  0
  7  8  1  6
  8  9  1  0
  9 10  2  0
  9 11  1  0
 11 12  2  0
 12 13  1  0
 13 14  1  0
 13 15  1  0
 15 16  2  0
 16 17  1  0
 17 18  2  0
 18 19  1  0
 18 20  1  0
 20 21  2  0
  7 22  1  0
 22 23  1  0
 23 24  2  0
  4  2  1  0
 23  5  1  0
 21 11  1  0
 21 15  1  0
M  END
>  <alias>  (327) 
None

>  <rmsd(smina/fragmenstein)>  (327) 
0.372

>  <smiles>  (327) 
C[C@@H]1C[C@H]1N1C[C@@H](NC(=O)c2nn(C)c3ccc(F)cc23)CC1=O

>  <gnina_score>  (327) 
6.043

>  <inspiration_score>  (327) 
None

>  <energy_score>  (327) 
-23.733742

>  <distance_score>  (327) 
1.001718

>  <gnina_score_min>  (327) 
6.044

>  <inchikey>  (327) 
MDOMBLPTVSSVAA-OLUVUFQESA-N

>  <exports>  (327) 
['/opt/xchem-fragalysis-2/maxwin/BulkDock/OUTPUTS/openbind_a71ev2a_c2_elabs_1LOUU54.sdf', '/opt/xchem-fragalysis-2/maxwin/BulkDock/OUTPUTS/openbind_a71ev2a_c2_elabs_1LSYIDY.sdf']

>  <name>  (327) 
P570580

>  <ref_pdb>  (327) 
A2339a

>  <subsites>  (327) 
None

>  <HIPPO Pose ID>  (327) 
570580

>  <ref_mols>  (327) 
A2339a

>  <HIPPO Compound ID>  (327) 
411646

>  <tags>  (327) 
openbind_a71ev2a_c2_elabs,syndirella_product,openbind_a71ev2a_c2_elabs_scored,BulkDock Fragalysis export,openbind_a71ev2a_c2_elabs_scored_top80percent,openbind_a71ev2a_c2_elabs_scored_6plus,openbind_a71ev2a_c2_elabs_scored_top80percent_despaghettified,syndirella_placed

>  <smina_score_min>  (327) 
-6.351

$$$$
P570583
     RDKit          3D

 24 27  0  0  0  0  0  0  0  0999 V2000
    8.7488    8.8726   23.7943 C   0  0  0  0  0  0  0  0  0  0  0  0
    8.2753   10.1238   24.3432 N   0  0  0  0  0  0  0  0  0  0  0  0
    8.9991   11.2191   24.0961 N   0  0  0  0  0  0  0  0  0  0  0  0
    8.4579   12.1566   24.8998 C   0  0  0  0  0  0  0  0  0  0  0  0
    9.1271   13.4228   25.1175 C   0  0  0  0  0  0  0  0  0  0  0  0
    8.6468   14.3705   25.5797 O   0  0  0  0  0  0  0  0  0  0  0  0
   10.4978   13.2102   24.5186 N   0  0  0  0  0  0  0  0  0  0  0  0
   11.5303   14.1151   24.2711 C   0  0  0  0  0  0  0  0  0  0  0  0
   11.2935   14.3516   22.7985 C   0  0  0  0  0  0  0  0  0  0  0  0
    9.8805   14.8587   22.4734 C   0  0  0  0  0  0  0  0  0  0  0  0
    9.7246   15.0534   20.9946 C   0  0  0  0  0  0  0  0  0  0  0  0
   10.8429   15.7576   20.3777 N   0  0  0  0  0  0  0  0  0  0  0  0
   10.7244   15.5820   18.9456 C   0  0  0  0  0  0  0  0  0  0  0  0
   11.9400   15.3771   18.1083 C   0  0  0  0  0  0  0  0  0  0  0  0
   11.0591   14.2534   18.3767 C   0  0  0  0  0  0  0  0  0  0  0  0
   12.1759   15.3553   20.8322 C   0  0  0  0  0  0  0  0  0  0  0  0
   12.2682   15.3458   22.2938 C   0  0  0  0  0  0  0  0  0  0  0  0
    7.3123   11.7202   25.5392 C   0  0  0  0  0  0  0  0  0  0  0  0
    6.4249   12.3176   26.4382 C   0  0  0  0  0  0  0  0  0  0  0  0
    5.5105   11.5007   27.0653 C   0  0  0  0  0  0  0  0  0  0  0  0
    4.6926   12.0391   27.9720 F   0  0  0  0  0  0  0  0  0  0  0  0
    5.4467   10.1456   26.7935 C   0  0  0  0  0  0  0  0  0  0  0  0
    6.2864    9.5737   25.8360 C   0  0  0  0  0  0  0  0  0  0  0  0
    7.2492   10.3674   25.2294 C   0  0  0  0  0  0  0  0  0  0  0  0
  1  2  1  0
  2  3  1  0
  3  4  2  0
  4  5  1  0
  5  6  2  0
  5  7  1  0
  7  8  1  0
  8  9  1  0
  9 10  1  0
 10 11  1  0
 11 12  1  0
 12 13  1  0
 13 14  1  0
 14 15  1  0
 12 16  1  0
 16 17  1  0
  4 18  1  0
 18 19  2  0
 19 20  1  0
 20 21  1  0
 20 22  2  0
 22 23  1  0
 23 24  2  0
 24  2  1  0
 17  9  1  0
 24 18  1  0
 15 13  1  0
M  END
>  <alias>  (328) 
None

>  <rmsd(smina/fragmenstein)>  (328) 
0.703

>  <smiles>  (328) 
Cn1nc(C(=O)NCC2CCN(C3CC3)CC2)c2cc(F)ccc21

>  <gnina_score>  (328) 
5.815

>  <inspiration_score>  (328) 
None

>  <energy_score>  (328) 
-12.690649

>  <distance_score>  (328) 
1.674764

>  <gnina_score_min>  (328) 
5.59

>  <inchikey>  (328) 
UOAUOLYXTKYCMK-UHFFFAOYSA-N

>  <exports>  (328) 
['/opt/xchem-fragalysis-2/maxwin/BulkDock/OUTPUTS/openbind_a71ev2a_c2_elabs_1LOUU54.sdf', '/opt/xchem-fragalysis-2/maxwin/BulkDock/OUTPUTS/openbind_a71ev2a_c2_elabs_1LSYIDY.sdf']

>  <name>  (328) 
P570583

>  <ref_pdb>  (328) 
A2339a

>  <subsites>  (328) 
None

>  <HIPPO Pose ID>  (328) 
570583

>  <ref_mols>  (328) 
A2339a

>  <HIPPO Compound ID>  (328) 
411657

>  <tags>  (328) 
openbind_a71ev2a_c2_elabs,syndirella_product,openbind_a71ev2a_c2_elabs_scored,BulkDock Fragalysis export,openbind_a71ev2a_c2_elabs_scored_top80percent,openbind_a71ev2a_c2_elabs_scored_top80percent_despaghettified,syndirella_placed

>  <smina_score_min>  (328) 
-5.4

$$$$
P570584
     RDKit          3D

 24 27  0  0  0  0  0  0  0  0999 V2000
    8.7367    8.8183   23.8588 C   0  0  0  0  0  0  0  0  0  0  0  0
    8.2510   10.0739   24.3801 N   0  0  0  0  0  0  0  0  0  0  0  0
    8.8048   11.1853   23.8992 N   0  0  0  0  0  0  0  0  0  0  0  0
    8.1872   12.1754   24.5743 C   0  0  0  0  0  0  0  0  0  0  0  0
    8.3675   13.5406   24.1581 C   0  0  0  0  0  0  0  0  0  0  0  0
    8.2308   14.4896   24.8085 O   0  0  0  0  0  0  0  0  0  0  0  0
    8.8598   13.3870   22.7398 N   0  0  0  0  0  0  0  0  0  0  0  0
    9.3701   14.3251   21.8556 C   0  0  0  0  0  0  0  0  0  0  0  0
   10.8860   14.3077   21.9769 C   0  0  0  0  0  0  0  0  0  0  0  0
   11.5776   15.2967   21.1773 N   0  0  0  0  0  0  0  0  0  0  0  0
   11.6503   14.9772   19.7693 C   0  0  0  0  0  0  0  0  0  0  0  0
   10.5804   15.5896   18.8881 C   0  0  0  0  0  0  0  0  0  0  0  0
   10.2299   16.9354   19.1767 O   0  0  0  0  0  0  0  0  0  0  0  0
    9.8994   17.1202   20.5455 C   0  0  0  0  0  0  0  0  0  0  0  0
   11.0172   16.6012   21.4597 C   0  0  0  0  0  0  0  0  0  0  0  0
   11.5685   14.0343   23.3263 C   0  0  0  0  0  0  0  0  0  0  0  0
   11.6109   13.0229   22.2402 C   0  0  0  0  0  0  0  0  0  0  0  0
    7.3082   11.7140   25.5324 C   0  0  0  0  0  0  0  0  0  0  0  0
    6.4654   12.3376   26.4553 C   0  0  0  0  0  0  0  0  0  0  0  0
    5.5991   11.5354   27.1669 C   0  0  0  0  0  0  0  0  0  0  0  0
    4.8001   12.1074   28.0701 F   0  0  0  0  0  0  0  0  0  0  0  0
    5.5229   10.1725   26.9384 C   0  0  0  0  0  0  0  0  0  0  0  0
    6.3366    9.5697   25.9771 C   0  0  0  0  0  0  0  0  0  0  0  0
    7.2784   10.3418   25.3151 C   0  0  0  0  0  0  0  0  0  0  0  0
  1  2  1  0
  2  3  1  0
  3  4  2  0
  4  5  1  0
  5  6  2  0
  5  7  1  0
  7  8  1  0
  8  9  1  0
  9 10  1  0
 10 11  1  0
 11 12  1  0
 12 13  1  0
 13 14  1  0
 14 15  1  0
  9 16  1  0
 16 17  1  0
  4 18  1  0
 18 19  2  0
 19 20  1  0
 20 21  1  0
 20 22  2  0
 22 23  1  0
 23 24  2  0
 24  2  1  0
 17  9  1  0
 24 18  1  0
 15 10  1  0
M  END
>  <alias>  (329) 
None

>  <rmsd(smina/fragmenstein)>  (329) 
1.072

>  <smiles>  (329) 
Cn1nc(C(=O)NCC2(N3CCOCC3)CC2)c2cc(F)ccc21

>  <gnina_score>  (329) 
5.782

>  <inspiration_score>  (329) 
None

>  <energy_score>  (329) 
-0.106535

>  <distance_score>  (329) 
1.516743

>  <gnina_score_min>  (329) 
5.824

>  <inchikey>  (329) 
RRQBNVDYUGEVHP-UHFFFAOYSA-N

>  <exports>  (329) 
['/opt/xchem-fragalysis-2/maxwin/BulkDock/OUTPUTS/openbind_a71ev2a_c2_elabs_1LOUU54.sdf', '/opt/xchem-fragalysis-2/maxwin/BulkDock/OUTPUTS/openbind_a71ev2a_c2_elabs_1LSYIDY.sdf']

>  <name>  (329) 
P570584

>  <ref_pdb>  (329) 
A2339a

>  <subsites>  (329) 
None

>  <HIPPO Pose ID>  (329) 
570584

>  <ref_mols>  (329) 
A2339a

>  <HIPPO Compound ID>  (329) 
411658

>  <tags>  (329) 
openbind_a71ev2a_c2_elabs,syndirella_product,openbind_a71ev2a_c2_elabs_scored,BulkDock Fragalysis export,openbind_a71ev2a_c2_elabs_scored_top80percent,openbind_a71ev2a_c2_elabs_scored_top80percent_despaghettified,syndirella_placed

>  <smina_score_min>  (329) 
-7.33

$$$$
P570585
     RDKit          3D

 24 27  0  0  0  0  0  0  0  0999 V2000
    8.8992    8.6457   23.5743 C   0  0  0  0  0  0  0  0  0  0  0  0
    8.5566    9.9771   24.0069 N   0  0  0  0  0  0  0  0  0  0  0  0
    9.3100   10.9860   23.5584 N   0  0  0  0  0  0  0  0  0  0  0  0
    8.9927   12.0031   24.3793 C   0  0  0  0  0  0  0  0  0  0  0  0
    9.8749   13.1539   24.4789 C   0  0  0  0  0  0  0  0  0  0  0  0
    9.8099   13.9445   25.3268 O   0  0  0  0  0  0  0  0  0  0  0  0
   10.8385   13.0377   23.3125 N   0  0  0  0  0  0  0  0  0  0  0  0
   11.8576   13.9002   22.8815 C   0  0  0  0  0  0  0  0  0  0  0  0
   11.3781   15.2041   22.2089 C   0  0  1  0  0  0  0  0  0  0  0  0
   12.4729   15.5178   21.1959 C   0  0  0  0  0  0  0  0  0  0  0  0
   12.3114   14.6816   19.9402 C   0  0  0  0  0  0  0  0  0  0  0  0
   10.9662   14.9741   19.3270 C   0  0  0  0  0  0  0  0  0  0  0  0
    9.8638   14.6834   20.3340 C   0  0  0  0  0  0  0  0  0  0  0  0
   10.0364   15.3594   21.6055 N   0  0  0  0  0  0  0  0  0  0  0  0
    8.8972   15.2925   22.5436 C   0  0  0  0  0  0  0  0  0  0  0  0
    7.6174   14.5427   22.2641 C   0  0  0  0  0  0  0  0  0  0  0  0
    7.6306   16.0348   22.2173 C   0  0  0  0  0  0  0  0  0  0  0  0
    7.8350   11.7394   25.1218 C   0  0  0  0  0  0  0  0  0  0  0  0
    7.0304   12.4752   26.0059 C   0  0  0  0  0  0  0  0  0  0  0  0
    6.0317   11.8032   26.6932 C   0  0  0  0  0  0  0  0  0  0  0  0
    5.2798   12.4766   27.5704 F   0  0  0  0  0  0  0  0  0  0  0  0
    5.8279   10.4439   26.5263 C   0  0  0  0  0  0  0  0  0  0  0  0
    6.6077    9.7157   25.6262 C   0  0  0  0  0  0  0  0  0  0  0  0
    7.6105   10.3806   24.9221 C   0  0  0  0  0  0  0  0  0  0  0  0
  1  2  1  0
  2  3  1  0
  3  4  2  0
  4  5  1  0
  5  6  2  0
  5  7  1  0
  7  8  1  0
  9  8  1  6
  9 10  1  0
 10 11  1  0
 11 12  1  0
 12 13  1  0
 13 14  1  0
 14 15  1  0
 15 16  1  0
 16 17  1  0
  4 18  1  0
 18 19  2  0
 19 20  1  0
 20 21  1  0
 20 22  2  0
 22 23  1  0
 23 24  2  0
 24  2  1  0
 14  9  1  0
 17 15  1  0
 24 18  1  0
M  END
>  <alias>  (330) 
None

>  <rmsd(smina/fragmenstein)>  (330) 
0.146

>  <smiles>  (330) 
Cn1nc(C(=O)NC[C@H]2CCCCN2C2CC2)c2cc(F)ccc21

>  <gnina_score>  (330) 
6.095

>  <inspiration_score>  (330) 
None

>  <energy_score>  (330) 
-12.635021

>  <distance_score>  (330) 
1.033681

>  <gnina_score_min>  (330) 
6.084

>  <inchikey>  (330) 
GDBYNTCSGHJCIR-CQSZACIVSA-N

>  <exports>  (330) 
['/opt/xchem-fragalysis-2/maxwin/BulkDock/OUTPUTS/openbind_a71ev2a_c2_elabs_1LOUU54.sdf', '/opt/xchem-fragalysis-2/maxwin/BulkDock/OUTPUTS/openbind_a71ev2a_c2_elabs_1LSYIDY.sdf']

>  <name>  (330) 
P570585

>  <ref_pdb>  (330) 
A2339a

>  <subsites>  (330) 
None

>  <HIPPO Pose ID>  (330) 
570585

>  <ref_mols>  (330) 
A2339a

>  <HIPPO Compound ID>  (330) 
411659

>  <tags>  (330) 
openbind_a71ev2a_c2_elabs,syndirella_product,openbind_a71ev2a_c2_elabs_scored,BulkDock Fragalysis export,openbind_a71ev2a_c2_elabs_scored_top80percent,openbind_a71ev2a_c2_elabs_scored_6plus,openbind_a71ev2a_c2_elabs_scored_top80percent_despaghettified,syndirella_placed

>  <smina_score_min>  (330) 
-7.767

$$$$
P570588
     RDKit          3D

 24 27  0  0  0  0  0  0  0  0999 V2000
    8.1144   15.9616   21.9039 C   0  0  0  0  0  0  0  0  0  0  0  0
    9.4189   16.5540   21.8561 O   0  0  0  0  0  0  0  0  0  0  0  0
   10.4794   15.8208   22.2858 C   0  0  0  0  0  0  0  0  0  0  0  0
   11.3662   16.1774   23.0390 O   0  0  0  0  0  0  0  0  0  0  0  0
   10.5570   14.4884   21.7223 C   0  0  2  0  0  0  0  0  0  0  0  0
   10.0841   13.4516   22.5503 N   0  0  0  0  0  0  0  0  0  0  0  0
    9.4199   13.5031   23.9243 C   0  0  0  0  0  0  0  0  0  0  0  0
    9.2226   14.4034   24.6340 O   0  0  0  0  0  0  0  0  0  0  0  0
    8.9488   12.1548   24.1846 C   0  0  0  0  0  0  0  0  0  0  0  0
    9.4297   11.1130   23.4828 N   0  0  0  0  0  0  0  0  0  0  0  0
    8.7718   10.0544   23.9795 N   0  0  0  0  0  0  0  0  0  0  0  0
    9.1759    8.7380   23.5448 C   0  0  0  0  0  0  0  0  0  0  0  0
    7.7936   10.4071   24.8814 C   0  0  0  0  0  0  0  0  0  0  0  0
    6.8365    9.6809   25.5876 C   0  0  0  0  0  0  0  0  0  0  0  0
    5.9813   10.3615   26.4559 C   0  0  0  0  0  0  0  0  0  0  0  0
    6.0727   11.7368   26.5915 C   0  0  0  0  0  0  0  0  0  0  0  0
    5.2545   12.3689   27.4397 F   0  0  0  0  0  0  0  0  0  0  0  0
    7.0132   12.4730   25.8857 C   0  0  0  0  0  0  0  0  0  0  0  0
    7.8937   11.7851   25.0335 C   0  0  0  0  0  0  0  0  0  0  0  0
   11.6544   14.1309   20.7661 C   0  0  2  0  0  0  0  0  0  0  0  0
   12.4797   15.0171   19.9318 C   0  0  0  0  0  0  0  0  0  0  0  0
   11.6367   15.2337   18.6687 C   0  0  0  0  0  0  0  0  0  0  0  0
   10.2569   15.4195   19.2419 C   0  0  0  0  0  0  0  0  0  0  0  0
   10.2452   14.3455   20.2803 C   0  0  2  0  0  0  0  0  0  0  0  0
  1  2  1  0
  2  3  1  0
  3  4  2  0
  3  5  1  0
  5  6  1  1
  6  7  1  0
  7  8  2  0
  7  9  1  0
  9 10  2  0
 10 11  1  0
 11 12  1  0
 11 13  1  0
 13 14  2  0
 14 15  1  0
 15 16  2  0
 16 17  1  0
 16 18  1  0
 18 19  2  0
  5 20  1  0
 20 21  1  6
 21 22  1  0
 22 23  1  0
 24 23  1  6
 24  5  1  0
 19  9  1  0
 24 20  1  0
 19 13  1  0
M  END
>  <alias>  (331) 
None

>  <rmsd(smina/fragmenstein)>  (331) 
0.288

>  <smiles>  (331) 
COC(=O)[C@]1(NC(=O)c2nn(C)c3ccc(F)cc23)[C@@H]2CCC[C@@H]21

>  <gnina_score>  (331) 
5.75

>  <inspiration_score>  (331) 
None

>  <energy_score>  (331) 
-16.858351

>  <distance_score>  (331) 
0.655702

>  <gnina_score_min>  (331) 
5.777

>  <inchikey>  (331) 
IBWBBQUUZXUJCP-PBKGOJFUSA-N

>  <exports>  (331) 
['/opt/xchem-fragalysis-2/maxwin/BulkDock/OUTPUTS/openbind_a71ev2a_c2_elabs_1LOUU54.sdf', '/opt/xchem-fragalysis-2/maxwin/BulkDock/OUTPUTS/openbind_a71ev2a_c2_elabs_1LSYIDY.sdf']

>  <name>  (331) 
P570588

>  <ref_pdb>  (331) 
A2339a

>  <subsites>  (331) 
None

>  <HIPPO Pose ID>  (331) 
570588

>  <ref_mols>  (331) 
A2339a

>  <HIPPO Compound ID>  (331) 
411668

>  <tags>  (331) 
openbind_a71ev2a_c2_elabs,syndirella_product,openbind_a71ev2a_c2_elabs_scored,BulkDock Fragalysis export,openbind_a71ev2a_c2_elabs_scored_top80percent,openbind_a71ev2a_c2_elabs_scored_top80percent_despaghettified,syndirella_placed

>  <smina_score_min>  (331) 
-4.483

$$$$
P570593
     RDKit          3D

 24 27  0  0  0  0  0  0  0  0999 V2000
    9.3353    8.3468   23.4372 C   0  0  0  0  0  0  0  0  0  0  0  0
    8.8719    9.6709   23.7453 N   0  0  0  0  0  0  0  0  0  0  0  0
    9.4503   10.6891   23.0922 N   0  0  0  0  0  0  0  0  0  0  0  0
    8.6495   11.7063   23.3963 C   0  0  0  0  0  0  0  0  0  0  0  0
    8.7938   13.0228   22.8908 C   0  0  0  0  0  0  0  0  0  0  0  0
    7.9292   13.6373   22.4262 O   0  0  0  0  0  0  0  0  0  0  0  0
   10.2176   13.4107   23.1927 N   0  0  0  0  0  0  0  0  0  0  0  0
   10.8573   14.6260   23.0854 C   0  0  0  0  0  0  0  0  0  0  0  0
   10.5617   15.2086   24.4914 C   0  0  0  0  0  0  0  0  0  0  0  0
    9.2172   15.4170   24.8798 C   0  0  0  0  0  0  0  0  0  0  0  0
    8.8732   15.6457   26.2108 C   0  0  0  0  0  0  0  0  0  0  0  0
    7.2395   15.9400   26.6478 Cl  0  0  0  0  0  0  0  0  0  0  0  0
    9.8473   15.6482   27.1839 C   0  0  0  0  0  0  0  0  0  0  0  0
   11.1330   15.4083   26.7639 C   0  0  0  0  0  0  0  0  0  0  0  0
   11.4952   15.1862   25.4712 N   0  0  0  0  0  0  0  0  0  0  0  0
   10.6998   15.4378   21.8193 C   0  0  0  0  0  0  0  0  0  0  0  0
   12.0172   14.8147   22.1601 C   0  0  0  0  0  0  0  0  0  0  0  0
    7.8083   11.4503   24.4890 C   0  0  0  0  0  0  0  0  0  0  0  0
    6.9615   12.2196   25.3112 C   0  0  0  0  0  0  0  0  0  0  0  0
    6.1851   11.5654   26.2545 C   0  0  0  0  0  0  0  0  0  0  0  0
    5.4035   12.2743   27.0778 F   0  0  0  0  0  0  0  0  0  0  0  0
    6.1980   10.1874   26.3429 C   0  0  0  0  0  0  0  0  0  0  0  0
    7.0499    9.4418   25.5221 C   0  0  0  0  0  0  0  0  0  0  0  0
    7.9021   10.0832   24.6358 C   0  0  0  0  0  0  0  0  0  0  0  0
  1  2  1  0
  2  3  1  0
  3  4  2  0
  4  5  1  0
  5  6  2  0
  5  7  1  0
  7  8  1  0
  8  9  1  0
  9 10  2  0
 10 11  1  0
 11 12  1  0
 11 13  2  0
 13 14  1  0
 14 15  2  0
  8 16  1  0
 16 17  1  0
  4 18  1  0
 18 19  2  0
 19 20  1  0
 20 21  1  0
 20 22  2  0
 22 23  1  0
 23 24  2  0
 24  2  1  0
 17  8  1  0
 24 18  1  0
 15  9  1  0
M  END
>  <alias>  (332) 
None

>  <rmsd(smina/fragmenstein)>  (332) 
0.497

>  <smiles>  (332) 
Cn1nc(C(=O)NC2(c3cc(Cl)ccn3)CC2)c2cc(F)ccc21

>  <gnina_score>  (332) 
6.205

>  <inspiration_score>  (332) 
None

>  <energy_score>  (332) 
-15.347962

>  <distance_score>  (332) 
1.03017

>  <gnina_score_min>  (332) 
6.1

>  <inchikey>  (332) 
RLCBACAAVIBLHD-UHFFFAOYSA-N

>  <exports>  (332) 
['/opt/xchem-fragalysis-2/maxwin/BulkDock/OUTPUTS/openbind_a71ev2a_c2_elabs_1LOUU54.sdf', '/opt/xchem-fragalysis-2/maxwin/BulkDock/OUTPUTS/openbind_a71ev2a_c2_elabs_1LSYIDY.sdf']

>  <name>  (332) 
P570593

>  <ref_pdb>  (332) 
A2339a

>  <subsites>  (332) 
None

>  <HIPPO Pose ID>  (332) 
570593

>  <ref_mols>  (332) 
A2339a

>  <HIPPO Compound ID>  (332) 
411680

>  <tags>  (332) 
openbind_a71ev2a_c2_elabs,syndirella_product,openbind_a71ev2a_c2_elabs_scored,BulkDock Fragalysis export,openbind_a71ev2a_c2_elabs_scored_top80percent,openbind_a71ev2a_c2_elabs_scored_6plus,openbind_a71ev2a_c2_elabs_scored_top80percent_despaghettified,syndirella_placed

>  <smina_score_min>  (332) 
-5.318

$$$$
P570594
     RDKit          3D

 24 26  0  0  0  0  0  0  0  0999 V2000
   11.1376   15.4094   26.7342 C   0  0  0  0  0  0  0  0  0  0  0  0
   10.4629   14.7082   25.5797 C   0  0  0  0  0  0  0  0  0  0  0  0
   11.3880   14.2807   24.5673 O   0  0  0  0  0  0  0  0  0  0  0  0
   11.2977   15.0868   23.4566 C   0  0  0  0  0  0  0  0  0  0  0  0
   11.3430   16.2879   23.5418 O   0  0  0  0  0  0  0  0  0  0  0  0
   11.0323   14.3972   22.1643 C   0  0  2  0  0  0  0  0  0  0  0  0
   10.2344   13.3242   22.5483 N   0  0  0  0  0  0  0  0  0  0  0  0
    8.8744   13.2979   23.2275 C   0  0  0  0  0  0  0  0  0  0  0  0
    8.1573   14.1650   23.5105 O   0  0  0  0  0  0  0  0  0  0  0  0
    8.5843   11.9462   23.6084 C   0  0  0  0  0  0  0  0  0  0  0  0
    9.2887   10.9056   23.1476 N   0  0  0  0  0  0  0  0  0  0  0  0
    8.7485    9.8584   23.7909 N   0  0  0  0  0  0  0  0  0  0  0  0
    9.2444    8.5449   23.4666 C   0  0  0  0  0  0  0  0  0  0  0  0
    7.7852   10.2253   24.7054 C   0  0  0  0  0  0  0  0  0  0  0  0
    6.9506    9.5213   25.5642 C   0  0  0  0  0  0  0  0  0  0  0  0
    6.1000   10.2163   26.4279 C   0  0  0  0  0  0  0  0  0  0  0  0
    6.0841   11.5983   26.4208 C   0  0  0  0  0  0  0  0  0  0  0  0
    5.3048   12.2557   27.2872 F   0  0  0  0  0  0  0  0  0  0  0  0
    6.8681   12.3154   25.5314 C   0  0  0  0  0  0  0  0  0  0  0  0
    7.7060   11.6044   24.6498 C   0  0  0  0  0  0  0  0  0  0  0  0
   11.8851   14.5868   20.9510 C   0  0  0  0  0  0  0  0  0  0  0  0
   10.5199   15.2356   20.9703 C   0  0  0  0  0  0  0  0  0  0  0  0
   10.3897   16.7168   21.0095 C   0  0  0  0  0  0  0  0  0  0  0  0
    9.4015   14.6815   20.1813 C   0  0  0  0  0  0  0  0  0  0  0  0
  1  2  1  0
  2  3  1  0
  3  4  1  0
  4  5  2  0
  4  6  1  0
  6  7  1  1
  7  8  1  0
  8  9  2  0
  8 10  1  0
 10 11  2  0
 11 12  1  0
 12 13  1  0
 12 14  1  0
 14 15  2  0
 15 16  1  0
 16 17  2  0
 17 18  1  0
 17 19  1  0
 19 20  2  0
  6 21  1  0
 21 22  1  0
 22 23  1  0
 22 24  1  0
 22  6  1  0
 20 10  1  0
 20 14  1  0
M  END
>  <alias>  (333) 
None

>  <rmsd(smina/fragmenstein)>  (333) 
0.323

>  <smiles>  (333) 
CCOC(=O)[C@]1(NC(=O)c2nn(C)c3ccc(F)cc23)CC1(C)C

>  <gnina_score>  (333) 
5.848

>  <inspiration_score>  (333) 
None

>  <energy_score>  (333) 
-11.949836

>  <distance_score>  (333) 
0.67964

>  <gnina_score_min>  (333) 
5.702

>  <inchikey>  (333) 
ILPKPPMTMQIHLD-QGZVFWFLSA-N

>  <exports>  (333) 
['/opt/xchem-fragalysis-2/maxwin/BulkDock/OUTPUTS/openbind_a71ev2a_c2_elabs_1LOUU54.sdf', '/opt/xchem-fragalysis-2/maxwin/BulkDock/OUTPUTS/openbind_a71ev2a_c2_elabs_1LSYIDY.sdf']

>  <name>  (333) 
P570594

>  <ref_pdb>  (333) 
A2339a

>  <subsites>  (333) 
None

>  <HIPPO Pose ID>  (333) 
570594

>  <ref_mols>  (333) 
A2339a

>  <HIPPO Compound ID>  (333) 
411685

>  <tags>  (333) 
openbind_a71ev2a_c2_elabs,syndirella_product,openbind_a71ev2a_c2_elabs_scored,BulkDock Fragalysis export,openbind_a71ev2a_c2_elabs_scored_top80percent,openbind_a71ev2a_c2_elabs_scored_top80percent_despaghettified,syndirella_placed

>  <smina_score_min>  (333) 
-4.848

$$$$
P570599
     RDKit          3D

 24 27  0  0  0  0  0  0  0  0999 V2000
    9.5769    9.2520   23.1703 C   0  0  0  0  0  0  0  0  0  0  0  0
    9.1622   10.4884   23.8033 N   0  0  0  0  0  0  0  0  0  0  0  0
    9.8813   11.6161   23.5924 N   0  0  0  0  0  0  0  0  0  0  0  0
    9.2644   12.5553   24.3426 C   0  0  0  0  0  0  0  0  0  0  0  0
    9.6937   13.9726   24.3367 C   0  0  0  0  0  0  0  0  0  0  0  0
    9.1118   14.7831   24.9397 O   0  0  0  0  0  0  0  0  0  0  0  0
   10.8806   14.1111   23.3678 N   0  0  0  0  0  0  0  0  0  0  0  0
   11.5288   15.2612   22.8715 C   0  0  1  0  0  0  0  0  0  0  0  0
   12.7265   15.3405   21.9840 C   0  0  0  0  0  0  0  0  0  0  0  0
   11.3950   15.4398   21.3623 C   0  0  0  0  0  0  0  0  0  0  0  0
   11.1214   14.2883   20.5120 C   0  0  0  0  0  0  0  0  0  0  0  0
    9.6880   13.9583   20.7632 C   0  0  0  0  0  0  0  0  0  0  0  0
    8.7767   15.0957   20.5189 C   0  0  0  0  0  0  0  0  0  0  0  0
    7.5200   14.6923   20.8206 F   0  0  0  0  0  0  0  0  0  0  0  0
    8.8757   15.3042   19.1816 F   0  0  0  0  0  0  0  0  0  0  0  0
    9.1285   16.3558   21.2511 C   0  0  0  0  0  0  0  0  0  0  0  0
   10.5858   16.6226   20.9325 C   0  0  0  0  0  0  0  0  0  0  0  0
    8.1234   12.0225   24.9969 C   0  0  0  0  0  0  0  0  0  0  0  0
    7.1180   12.5398   25.8340 C   0  0  0  0  0  0  0  0  0  0  0  0
    6.2004   11.6577   26.3935 C   0  0  0  0  0  0  0  0  0  0  0  0
    5.2839   12.1315   27.2465 F   0  0  0  0  0  0  0  0  0  0  0  0
    6.2440   10.2964   26.1268 C   0  0  0  0  0  0  0  0  0  0  0  0
    7.2067    9.7798   25.2568 C   0  0  0  0  0  0  0  0  0  0  0  0
    8.1272   10.6660   24.6902 C   0  0  0  0  0  0  0  0  0  0  0  0
  1  2  1  0
  2  3  1  0
  3  4  2  0
  4  5  1  0
  5  6  2  0
  5  7  1  0
  8  7  1  6
  8  9  1  0
  9 10  1  0
 10 11  1  0
 11 12  1  0
 12 13  1  0
 13 14  1  0
 13 15  1  0
 13 16  1  0
 16 17  1  0
  4 18  1  0
 18 19  2  0
 19 20  1  0
 20 21  1  0
 20 22  2  0
 22 23  1  0
 23 24  2  0
 24  2  1  0
 10  8  1  0
 24 18  1  0
 17 10  1  0
M  END
>  <alias>  (334) 
None

>  <rmsd(smina/fragmenstein)>  (334) 
0.136

>  <smiles>  (334) 
Cn1nc(C(=O)N[C@H]2CC23CCC(F)(F)CC3)c2cc(F)ccc21

>  <gnina_score>  (334) 
5.971

>  <inspiration_score>  (334) 
None

>  <energy_score>  (334) 
-17.876616

>  <distance_score>  (334) 
0.853586

>  <gnina_score_min>  (334) 
5.991

>  <inchikey>  (334) 
BUQYRRIMUXJYQG-ZDUSSCGKSA-N

>  <exports>  (334) 
['/opt/xchem-fragalysis-2/maxwin/BulkDock/OUTPUTS/openbind_a71ev2a_c2_elabs_1LOUU54.sdf', '/opt/xchem-fragalysis-2/maxwin/BulkDock/OUTPUTS/openbind_a71ev2a_c2_elabs_1LSYIDY.sdf']

>  <name>  (334) 
P570599

>  <ref_pdb>  (334) 
A2339a

>  <subsites>  (334) 
None

>  <HIPPO Pose ID>  (334) 
570599

>  <ref_mols>  (334) 
A2339a

>  <HIPPO Compound ID>  (334) 
411687

>  <tags>  (334) 
openbind_a71ev2a_c2_elabs,syndirella_product,openbind_a71ev2a_c2_elabs_scored,BulkDock Fragalysis export,openbind_a71ev2a_c2_elabs_scored_top80percent,openbind_a71ev2a_c2_elabs_scored_top80percent_despaghettified,syndirella_placed

>  <smina_score_min>  (334) 
-5.051

$$$$
P570600
     RDKit          3D

 24 26  0  0  0  0  0  0  0  0999 V2000
    6.5704   15.2789   23.3302 C   0  0  0  0  0  0  0  0  0  0  0  0
    7.8933   15.2088   22.8049 O   0  0  0  0  0  0  0  0  0  0  0  0
    7.9044   14.6237   21.4964 C   0  0  0  0  0  0  0  0  0  0  0  0
    8.9213   15.2898   20.5449 C   0  0  0  0  0  0  0  0  0  0  0  0
   10.3343   15.0601   20.8430 N   0  0  0  0  0  0  0  0  0  0  0  0
   10.7395   15.9511   21.9235 C   0  0  0  0  0  0  0  0  0  0  0  0
   11.2209   15.1961   23.1360 C   0  0  0  0  0  0  0  0  0  0  0  0
   10.4569   14.0406   23.4010 N   0  0  0  0  0  0  0  0  0  0  0  0
   10.8742   12.6844   23.9043 C   0  0  0  0  0  0  0  0  0  0  0  0
   11.9062   12.3007   24.2624 O   0  0  0  0  0  0  0  0  0  0  0  0
    9.7296   11.7646   23.8299 C   0  0  0  0  0  0  0  0  0  0  0  0
    9.8565   10.6404   23.1171 N   0  0  0  0  0  0  0  0  0  0  0  0
    8.9741    9.8100   23.6639 N   0  0  0  0  0  0  0  0  0  0  0  0
    9.1374    8.4063   23.4065 C   0  0  0  0  0  0  0  0  0  0  0  0
    8.0958   10.4265   24.5209 C   0  0  0  0  0  0  0  0  0  0  0  0
    7.0283    9.9411   25.2872 C   0  0  0  0  0  0  0  0  0  0  0  0
    6.3343   10.8424   26.0901 C   0  0  0  0  0  0  0  0  0  0  0  0
    6.7114   12.1749   26.1285 C   0  0  0  0  0  0  0  0  0  0  0  0
    6.0499   13.0035   26.9474 F   0  0  0  0  0  0  0  0  0  0  0  0
    7.8004   12.6556   25.3942 C   0  0  0  0  0  0  0  0  0  0  0  0
    8.5117   11.7594   24.5731 C   0  0  0  0  0  0  0  0  0  0  0  0
   11.2099   15.3272   19.7165 C   0  0  0  0  0  0  0  0  0  0  0  0
   12.4304   14.4466   19.7436 C   0  0  0  0  0  0  0  0  0  0  0  0
   11.5193   14.4585   18.5693 C   0  0  0  0  0  0  0  0  0  0  0  0
  1  2  1  0
  2  3  1  0
  3  4  1  0
  4  5  1  0
  5  6  1  0
  6  7  1  0
  7  8  1  0
  8  9  1  0
  9 10  2  0
  9 11  1  0
 11 12  2  0
 12 13  1  0
 13 14  1  0
 13 15  1  0
 15 16  2  0
 16 17  1  0
 17 18  2  0
 18 19  1  0
 18 20  1  0
 20 21  2  0
  5 22  1  0
 22 23  1  0
 23 24  1  0
 21 11  1  0
 24 22  1  0
 21 15  1  0
M  END
>  <alias>  (335) 
None

>  <rmsd(smina/fragmenstein)>  (335) 
0.374

>  <smiles>  (335) 
COCCN(CCNC(=O)c1nn(C)c2ccc(F)cc12)C1CC1

>  <gnina_score>  (335) 
5.671

>  <inspiration_score>  (335) 
None

>  <energy_score>  (335) 
-4.151143

>  <distance_score>  (335) 
1.197755

>  <gnina_score_min>  (335) 
5.665

>  <inchikey>  (335) 
LTYYJDJOPJCFHH-UHFFFAOYSA-N

>  <exports>  (335) 
['/opt/xchem-fragalysis-2/maxwin/BulkDock/OUTPUTS/openbind_a71ev2a_c2_elabs_1LOUU54.sdf', '/opt/xchem-fragalysis-2/maxwin/BulkDock/OUTPUTS/openbind_a71ev2a_c2_elabs_1LSYIDY.sdf']

>  <name>  (335) 
P570600

>  <ref_pdb>  (335) 
A2339a

>  <subsites>  (335) 
None

>  <HIPPO Pose ID>  (335) 
570600

>  <ref_mols>  (335) 
A2339a

>  <HIPPO Compound ID>  (335) 
411692

>  <tags>  (335) 
openbind_a71ev2a_c2_elabs,syndirella_product,openbind_a71ev2a_c2_elabs_scored,BulkDock Fragalysis export,openbind_a71ev2a_c2_elabs_scored_top80percent,openbind_a71ev2a_c2_elabs_scored_top80percent_despaghettified,syndirella_placed

>  <smina_score_min>  (335) 
-4.481

$$$$
P570601
     RDKit          3D

 24 27  0  0  0  0  0  0  0  0999 V2000
    8.9273    8.6992   23.6630 C   0  0  0  0  0  0  0  0  0  0  0  0
    8.4693   10.0049   24.0695 N   0  0  0  0  0  0  0  0  0  0  0  0
    9.0728   11.0682   23.5279 N   0  0  0  0  0  0  0  0  0  0  0  0
    8.4623   12.1155   24.1113 C   0  0  0  0  0  0  0  0  0  0  0  0
    8.8968   13.4604   23.8283 C   0  0  0  0  0  0  0  0  0  0  0  0
    8.4149   14.4105   24.2899 O   0  0  0  0  0  0  0  0  0  0  0  0
   10.1128   13.3087   22.9314 N   0  0  0  0  0  0  0  0  0  0  0  0
   11.0248   14.2410   22.4968 C   0  0  0  0  0  0  0  0  0  0  0  0
   10.8783   14.6914   21.1039 C   0  0  0  0  0  0  0  0  0  0  0  0
   11.8202   14.2399   20.1826 C   0  0  0  0  0  0  0  0  0  0  0  0
   11.8562   14.7427   18.9195 C   0  0  0  0  0  0  0  0  0  0  0  0
   11.0511   15.8020   18.6124 C   0  0  0  0  0  0  0  0  0  0  0  0
   10.0968   16.2737   19.4962 C   0  0  0  0  0  0  0  0  0  0  0  0
    9.9572   15.6625   20.7142 C   0  0  0  0  0  0  0  0  0  0  0  0
    8.9553   16.1169   21.5170 O   0  0  0  0  0  0  0  0  0  0  0  0
   12.3867   14.2802   23.1176 C   0  0  0  0  0  0  0  0  0  0  0  0
   11.3595   15.3086   23.4737 C   0  0  0  0  0  0  0  0  0  0  0  0
    7.5106   11.7349   25.0557 C   0  0  0  0  0  0  0  0  0  0  0  0
    6.6761   12.4202   25.9510 C   0  0  0  0  0  0  0  0  0  0  0  0
    5.8369   11.6737   26.7587 C   0  0  0  0  0  0  0  0  0  0  0  0
    5.0626   12.3056   27.6461 F   0  0  0  0  0  0  0  0  0  0  0  0
    5.7916   10.2937   26.6697 C   0  0  0  0  0  0  0  0  0  0  0  0
    6.6141    9.6192   25.7658 C   0  0  0  0  0  0  0  0  0  0  0  0
    7.5057   10.3489   24.9891 C   0  0  0  0  0  0  0  0  0  0  0  0
  1  2  1  0
  2  3  1  0
  3  4  2  0
  4  5  1  0
  5  6  2  0
  5  7  1  0
  7  8  1  0
  8  9  1  0
  9 10  2  0
 10 11  1  0
 11 12  2  0
 12 13  1  0
 13 14  2  0
 14 15  1  0
  8 16  1  0
 16 17  1  0
  4 18  1  0
 18 19  2  0
 19 20  1  0
 20 21  1  0
 20 22  2  0
 22 23  1  0
 23 24  2  0
 24  2  1  0
 17  8  1  0
 24 18  1  0
 14  9  1  0
M  END
>  <alias>  (336) 
None

>  <rmsd(smina/fragmenstein)>  (336) 
0.747

>  <smiles>  (336) 
Cn1nc(C(=O)NC2(c3ccccc3O)CC2)c2cc(F)ccc21

>  <gnina_score>  (336) 
5.806

>  <inspiration_score>  (336) 
None

>  <energy_score>  (336) 
-26.560147

>  <distance_score>  (336) 
1.298811

>  <gnina_score_min>  (336) 
5.72

>  <inchikey>  (336) 
ZPQZWWOMMCAIRX-UHFFFAOYSA-N

>  <exports>  (336) 
['/opt/xchem-fragalysis-2/maxwin/BulkDock/OUTPUTS/openbind_a71ev2a_c2_elabs_1LOUU54.sdf', '/opt/xchem-fragalysis-2/maxwin/BulkDock/OUTPUTS/openbind_a71ev2a_c2_elabs_1LSYIDY.sdf']

>  <name>  (336) 
P570601

>  <ref_pdb>  (336) 
A2339a

>  <subsites>  (336) 
None

>  <HIPPO Pose ID>  (336) 
570601

>  <ref_mols>  (336) 
A2339a

>  <HIPPO Compound ID>  (336) 
411695

>  <tags>  (336) 
openbind_a71ev2a_c2_elabs,syndirella_product,openbind_a71ev2a_c2_elabs_scored,BulkDock Fragalysis export,openbind_a71ev2a_c2_elabs_scored_top80percent,openbind_a71ev2a_c2_elabs_scored_top80percent_despaghettified,syndirella_placed

>  <smina_score_min>  (336) 
-6.405

$$$$
P570605
     RDKit          3D

 24 27  0  0  0  0  0  0  0  0999 V2000
    9.3059    8.7964   23.1196 C   0  0  0  0  0  0  0  0  0  0  0  0
    9.0608   10.0909   23.7095 N   0  0  0  0  0  0  0  0  0  0  0  0
    9.8578   11.1135   23.3518 N   0  0  0  0  0  0  0  0  0  0  0  0
    9.4882   12.1147   24.1694 C   0  0  0  0  0  0  0  0  0  0  0  0
   10.2568   13.3635   24.2436 C   0  0  0  0  0  0  0  0  0  0  0  0
   10.1439   14.0941   25.1426 O   0  0  0  0  0  0  0  0  0  0  0  0
   11.0583   13.5001   22.9502 N   0  0  0  0  0  0  0  0  0  0  0  0
   11.8148   14.5962   22.4397 C   0  0  0  0  0  0  0  0  0  0  0  0
   11.3421   15.0483   21.0604 C   0  0  0  0  0  0  0  0  0  0  0  0
   10.0076   15.7075   21.0429 N   0  0  0  0  0  0  0  0  0  0  0  0
    9.8025   16.2859   19.7079 C   0  0  0  0  0  0  0  0  0  0  0  0
    9.6081   17.7748   19.7191 C   0  0  0  0  0  0  0  0  0  0  0  0
    8.4111   18.7292   19.6301 C   0  0  0  0  0  0  0  0  0  0  0  0
    9.1107   18.5270   20.9167 C   0  0  0  0  0  0  0  0  0  0  0  0
    8.8788   14.8071   21.3896 C   0  0  0  0  0  0  0  0  0  0  0  0
    7.4808   15.3482   21.5839 C   0  0  0  0  0  0  0  0  0  0  0  0
    8.2251   14.8371   22.7484 C   0  0  0  0  0  0  0  0  0  0  0  0
    8.2982   11.7989   24.8735 C   0  0  0  0  0  0  0  0  0  0  0  0
    7.4105   12.4906   25.7223 C   0  0  0  0  0  0  0  0  0  0  0  0
    6.3880   11.7793   26.3423 C   0  0  0  0  0  0  0  0  0  0  0  0
    5.5674   12.4130   27.1903 F   0  0  0  0  0  0  0  0  0  0  0  0
    6.2389   10.4158   26.1475 C   0  0  0  0  0  0  0  0  0  0  0  0
    7.0965    9.7313   25.2841 C   0  0  0  0  0  0  0  0  0  0  0  0
    8.0998   10.4460   24.6272 C   0  0  0  0  0  0  0  0  0  0  0  0
  1  2  1  0
  2  3  1  0
  3  4  2  0
  4  5  1  0
  5  6  2  0
  5  7  1  0
  7  8  1  0
  8  9  1  0
  9 10  1  0
 10 11  1  0
 11 12  1  0
 12 13  1  0
 13 14  1  0
 10 15  1  0
 15 16  1  0
 16 17  1  0
  4 18  1  0
 18 19  2  0
 19 20  1  0
 20 21  1  0
 20 22  2  0
 22 23  1  0
 23 24  2  0
 24  2  1  0
 14 12  1  0
 17 15  1  0
 24 18  1  0
M  END
>  <alias>  (337) 
None

>  <rmsd(smina/fragmenstein)>  (337) 
0.234

>  <smiles>  (337) 
Cn1nc(C(=O)NCCN(CC2CC2)C2CC2)c2cc(F)ccc21

>  <gnina_score>  (337) 
6.156

>  <inspiration_score>  (337) 
None

>  <energy_score>  (337) 
-12.681002

>  <distance_score>  (337) 
0.662675

>  <gnina_score_min>  (337) 
6.094

>  <inchikey>  (337) 
UGDXLQZSNQAAMI-UHFFFAOYSA-N

>  <exports>  (337) 
['/opt/xchem-fragalysis-2/maxwin/BulkDock/OUTPUTS/openbind_a71ev2a_c2_elabs_1LOUU54.sdf', '/opt/xchem-fragalysis-2/maxwin/BulkDock/OUTPUTS/openbind_a71ev2a_c2_elabs_1LSYIDY.sdf']

>  <name>  (337) 
P570605

>  <ref_pdb>  (337) 
A2339a

>  <subsites>  (337) 
None

>  <HIPPO Pose ID>  (337) 
570605

>  <ref_mols>  (337) 
A2339a

>  <HIPPO Compound ID>  (337) 
411704

>  <tags>  (337) 
openbind_a71ev2a_c2_elabs,syndirella_product,openbind_a71ev2a_c2_elabs_scored,BulkDock Fragalysis export,openbind_a71ev2a_c2_elabs_scored_top80percent,openbind_a71ev2a_c2_elabs_scored_6plus,openbind_a71ev2a_c2_elabs_scored_top80percent_despaghettified,syndirella_placed

>  <smina_score_min>  (337) 
-5.047

$$$$
P570612
     RDKit          3D

 24 27  0  0  0  0  0  0  0  0999 V2000
    9.0331    8.5398   23.5191 C   0  0  0  0  0  0  0  0  0  0  0  0
    8.7654    9.9160   23.8461 N   0  0  0  0  0  0  0  0  0  0  0  0
    9.5318   10.8397   23.2733 N   0  0  0  0  0  0  0  0  0  0  0  0
    9.2339   11.9792   23.9229 C   0  0  0  0  0  0  0  0  0  0  0  0
   10.1063   13.1378   23.7156 C   0  0  0  0  0  0  0  0  0  0  0  0
   10.0746   14.1003   24.3713 O   0  0  0  0  0  0  0  0  0  0  0  0
   11.0407   12.7501   22.5621 N   0  0  0  0  0  0  0  0  0  0  0  0
   12.0596   13.4896   21.9149 C   0  0  0  0  0  0  0  0  0  0  0  0
   11.4713   14.5823   21.0697 C   0  0  2  0  0  0  0  0  0  0  0  0
   12.0227   14.6604   19.6541 C   0  0  0  0  0  0  0  0  0  0  0  0
   11.6484   15.8539   21.8792 C   0  0  0  0  0  0  0  0  0  0  0  0
   10.2447   16.1506   21.6488 N   0  0  0  0  0  0  0  0  0  0  0  0
    9.9688   17.3689   20.9932 C   0  0  0  0  0  0  0  0  0  0  0  0
    8.5979   17.8209   20.7215 C   0  0  0  0  0  0  0  0  0  0  0  0
    9.5253   17.4283   19.6041 C   0  0  0  0  0  0  0  0  0  0  0  0
    9.9710   14.9143   21.1312 C   0  0  0  0  0  0  0  0  0  0  0  0
    8.9294   14.3953   20.7947 O   0  0  0  0  0  0  0  0  0  0  0  0
    8.1191   11.8089   24.7749 C   0  0  0  0  0  0  0  0  0  0  0  0
    7.3449   12.6371   25.6071 C   0  0  0  0  0  0  0  0  0  0  0  0
    6.3482   12.0488   26.3828 C   0  0  0  0  0  0  0  0  0  0  0  0
    5.6273   12.8098   27.2156 F   0  0  0  0  0  0  0  0  0  0  0  0
    6.1066   10.6833   26.3503 C   0  0  0  0  0  0  0  0  0  0  0  0
    6.8580    9.8532   25.5197 C   0  0  0  0  0  0  0  0  0  0  0  0
    7.8582   10.4370   24.7363 C   0  0  0  0  0  0  0  0  0  0  0  0
  1  2  1  0
  2  3  1  0
  3  4  2  0
  4  5  1  0
  5  6  2  0
  5  7  1  0
  7  8  1  0
  9  8  1  0
  9 10  1  6
  9 11  1  0
 11 12  1  0
 12 13  1  0
 13 14  1  0
 14 15  1  0
 12 16  1  0
 16 17  2  0
  4 18  1  0
 18 19  2  0
 19 20  1  0
 20 21  1  0
 20 22  2  0
 22 23  1  0
 23 24  2  0
 24  2  1  0
 16  9  1  0
 24 18  1  0
 15 13  1  0
M  END
>  <alias>  (338) 
None

>  <rmsd(smina/fragmenstein)>  (338) 
0.516

>  <smiles>  (338) 
Cn1nc(C(=O)NC[C@]2(C)CN(C3CC3)C2=O)c2cc(F)ccc21

>  <gnina_score>  (338) 
6.015

>  <inspiration_score>  (338) 
None

>  <energy_score>  (338) 
-6.859435

>  <distance_score>  (338) 
0.728033

>  <gnina_score_min>  (338) 
6.066

>  <inchikey>  (338) 
BVHBHLAWZPAFSM-QGZVFWFLSA-N

>  <exports>  (338) 
['/opt/xchem-fragalysis-2/maxwin/BulkDock/OUTPUTS/openbind_a71ev2a_c2_elabs_1LOUU54.sdf', '/opt/xchem-fragalysis-2/maxwin/BulkDock/OUTPUTS/openbind_a71ev2a_c2_elabs_1LSYIDY.sdf']

>  <name>  (338) 
P570612

>  <ref_pdb>  (338) 
A2339a

>  <subsites>  (338) 
None

>  <HIPPO Pose ID>  (338) 
570612

>  <ref_mols>  (338) 
A2339a

>  <HIPPO Compound ID>  (338) 
411710

>  <tags>  (338) 
openbind_a71ev2a_c2_elabs,syndirella_product,openbind_a71ev2a_c2_elabs_scored,BulkDock Fragalysis export,openbind_a71ev2a_c2_elabs_scored_top80percent,openbind_a71ev2a_c2_elabs_scored_6plus,openbind_a71ev2a_c2_elabs_scored_top80percent_despaghettified,syndirella_placed

>  <smina_score_min>  (338) 
-5.876

$$$$
P570615
     RDKit          3D

 24 27  0  0  0  0  0  0  0  0999 V2000
   12.4939   15.2006   22.0230 C   0  0  0  0  0  0  0  0  0  0  0  0
   11.6590   14.3089   21.1558 C   0  0  1  0  0  0  0  0  0  0  0  0
   10.8581   13.3776   21.9114 N   0  0  0  0  0  0  0  0  0  0  0  0
   10.1815   13.5255   23.2909 C   0  0  0  0  0  0  0  0  0  0  0  0
   10.1010   14.4500   23.9989 O   0  0  0  0  0  0  0  0  0  0  0  0
    9.5244   12.2409   23.6118 C   0  0  0  0  0  0  0  0  0  0  0  0
    9.9305   11.1164   22.9982 N   0  0  0  0  0  0  0  0  0  0  0  0
    9.2135   10.1344   23.5620 N   0  0  0  0  0  0  0  0  0  0  0  0
    9.5205    8.7724   23.1932 C   0  0  0  0  0  0  0  0  0  0  0  0
    8.2718   10.5875   24.4532 C   0  0  0  0  0  0  0  0  0  0  0  0
    7.3052    9.9232   25.2198 C   0  0  0  0  0  0  0  0  0  0  0  0
    6.4817   10.6897   26.0431 C   0  0  0  0  0  0  0  0  0  0  0  0
    6.6317   12.0684   26.0946 C   0  0  0  0  0  0  0  0  0  0  0  0
    5.8494   12.7673   26.9282 F   0  0  0  0  0  0  0  0  0  0  0  0
    7.5962   12.7335   25.3330 C   0  0  0  0  0  0  0  0  0  0  0  0
    8.4422   11.9733   24.5005 C   0  0  0  0  0  0  0  0  0  0  0  0
   10.8516   15.1325   20.1806 C   0  0  0  0  0  0  0  0  0  0  0  0
    9.8041   15.9847   20.7771 N   0  0  0  0  0  0  0  0  0  0  0  0
    8.6570   15.4994   21.3252 C   0  0  0  0  0  0  0  0  0  0  0  0
    7.9816   16.6335   21.6727 C   0  0  0  0  0  0  0  0  0  0  0  0
    8.6464   17.7280   21.1839 N   0  0  0  0  0  0  0  0  0  0  0  0
    9.7531   17.3064   20.5963 N   0  0  0  0  0  0  0  0  0  0  0  0
   10.5414   14.6219   18.8022 C   0  0  0  0  0  0  0  0  0  0  0  0
   11.6328   15.5581   18.9395 C   0  0  0  0  0  0  0  0  0  0  0  0
  2  1  1  1
  2  3  1  0
  3  4  1  0
  4  5  2  0
  4  6  1  0
  6  7  2  0
  7  8  1  0
  8  9  1  0
  8 10  1  0
 10 11  2  0
 11 12  1  0
 12 13  2  0
 13 14  1  0
 13 15  1  0
 15 16  2  0
  2 17  1  0
 17 18  1  0
 18 19  1  0
 19 20  2  0
 20 21  1  0
 21 22  2  0
 17 23  1  0
 23 24  1  0
 16  6  1  0
 24 17  1  0
 16 10  1  0
 22 18  1  0
M  END
>  <alias>  (339) 
None

>  <rmsd(smina/fragmenstein)>  (339) 
0.399

>  <smiles>  (339) 
C[C@@H](NC(=O)c1nn(C)c2ccc(F)cc12)C1(n2ccnn2)CC1

>  <gnina_score>  (339) 
6.305

>  <inspiration_score>  (339) 
None

>  <energy_score>  (339) 
-23.35647

>  <distance_score>  (339) 
0.532065

>  <gnina_score_min>  (339) 
6.253

>  <inchikey>  (339) 
YLYMUVFRPGCIQH-SNVBAGLBSA-N

>  <exports>  (339) 
['/opt/xchem-fragalysis-2/maxwin/BulkDock/OUTPUTS/openbind_a71ev2a_c2_elabs_1LOUU54.sdf', '/opt/xchem-fragalysis-2/maxwin/BulkDock/OUTPUTS/openbind_a71ev2a_c2_elabs_1LSYIDY.sdf']

>  <name>  (339) 
P570615

>  <ref_pdb>  (339) 
A2339a

>  <subsites>  (339) 
None

>  <HIPPO Pose ID>  (339) 
570615

>  <ref_mols>  (339) 
A2339a

>  <HIPPO Compound ID>  (339) 
411715

>  <tags>  (339) 
openbind_a71ev2a_c2_elabs,syndirella_product,openbind_a71ev2a_c2_elabs_scored,BulkDock Fragalysis export,openbind_a71ev2a_c2_elabs_scored_top80percent,openbind_a71ev2a_c2_elabs_scored_6plus,openbind_a71ev2a_c2_elabs_scored_top80percent_despaghettified,syndirella_placed

>  <smina_score_min>  (339) 
-6.124

$$$$
P570617
     RDKit          3D

 25 28  0  0  0  0  0  0  0  0999 V2000
    9.0468    8.6476   23.5651 C   0  0  0  0  0  0  0  0  0  0  0  0
    8.5355    9.9575   23.8862 N   0  0  0  0  0  0  0  0  0  0  0  0
    9.0746   11.0097   23.2530 N   0  0  0  0  0  0  0  0  0  0  0  0
    8.4328   12.0641   23.7823 C   0  0  0  0  0  0  0  0  0  0  0  0
    8.9339   13.3986   23.5945 C   0  0  0  0  0  0  0  0  0  0  0  0
    8.3713   14.3507   23.9474 O   0  0  0  0  0  0  0  0  0  0  0  0
   10.3103   13.2409   22.9726 N   0  0  0  0  0  0  0  0  0  0  0  0
   11.3020   14.1713   22.7424 C   0  0  0  0  0  0  0  0  0  0  0  0
   11.8541   14.3825   24.1361 C   0  0  0  0  0  0  0  0  0  0  0  0
   12.8440   13.8622   24.4726 O   0  0  0  0  0  0  0  0  0  0  0  0
   10.8840   15.3040   24.9235 N   0  0  0  0  0  0  0  0  0  0  0  0
   10.9854   15.8581   26.2754 C   0  0  1  0  0  0  0  0  0  0  0  0
    9.5794   16.1161   26.9173 C   0  0  0  0  0  0  0  0  0  0  0  0
   10.2803   16.0019   28.2819 C   0  0  2  0  0  0  0  0  0  0  0  0
   10.7698   17.2450   28.8190 O   0  0  0  0  0  0  0  0  0  0  0  0
   11.3090   15.1046   27.5515 C   0  0  0  0  0  0  0  0  0  0  0  0
   11.0135   15.3340   21.8114 C   0  0  0  0  0  0  0  0  0  0  0  0
   12.1158   14.3769   21.5062 C   0  0  0  0  0  0  0  0  0  0  0  0
    7.5221   11.7039   24.7849 C   0  0  0  0  0  0  0  0  0  0  0  0
    6.7182   12.4065   25.6996 C   0  0  0  0  0  0  0  0  0  0  0  0
    5.9430   11.6775   26.5864 C   0  0  0  0  0  0  0  0  0  0  0  0
    5.1951   12.3283   27.4840 F   0  0  0  0  0  0  0  0  0  0  0  0
    5.9406   10.2945   26.5678 C   0  0  0  0  0  0  0  0  0  0  0  0
    6.7590    9.6029   25.6725 C   0  0  0  0  0  0  0  0  0  0  0  0
    7.5834   10.3193   24.8127 C   0  0  0  0  0  0  0  0  0  0  0  0
  1  2  1  0
  2  3  1  0
  3  4  2  0
  4  5  1  0
  5  6  2  0
  5  7  1  0
  7  8  1  0
  8  9  1  0
  9 10  2  0
  9 11  1  0
 12 11  1  6
 12 13  1  0
 13 14  1  0
 14 15  1  6
 14 16  1  0
  8 17  1  0
 17 18  1  0
  4 19  1  0
 19 20  2  0
 20 21  1  0
 21 22  1  0
 21 23  2  0
 23 24  1  0
 24 25  2  0
 25  2  1  0
 18  8  1  0
 25 19  1  0
 16 12  1  0
M  END
>  <alias>  (340) 
None

>  <rmsd(smina/fragmenstein)>  (340) 
0.867

>  <smiles>  (340) 
Cn1nc(C(=O)NC2(C(=O)N[C@H]3C[C@H](O)C3)CC2)c2cc(F)ccc21

>  <gnina_score>  (340) 
5.777

>  <inspiration_score>  (340) 
None

>  <energy_score>  (340) 
-18.690563

>  <distance_score>  (340) 
0.882199

>  <gnina_score_min>  (340) 
5.449

>  <inchikey>  (340) 
JLNKARXZZPHGAQ-XYPYZODXSA-N

>  <exports>  (340) 
['/opt/xchem-fragalysis-2/maxwin/BulkDock/OUTPUTS/openbind_a71ev2a_c2_elabs_1LOUU54.sdf', '/opt/xchem-fragalysis-2/maxwin/BulkDock/OUTPUTS/openbind_a71ev2a_c2_elabs_1LSYIDY.sdf']

>  <name>  (340) 
P570617

>  <ref_pdb>  (340) 
A2339a

>  <subsites>  (340) 
None

>  <HIPPO Pose ID>  (340) 
570617

>  <ref_mols>  (340) 
A2339a

>  <HIPPO Compound ID>  (340) 
411726

>  <tags>  (340) 
openbind_a71ev2a_c2_elabs,syndirella_product,openbind_a71ev2a_c2_elabs_scored,BulkDock Fragalysis export,openbind_a71ev2a_c2_elabs_scored_top80percent,openbind_a71ev2a_c2_elabs_scored_top80percent_despaghettified,syndirella_placed

>  <smina_score_min>  (340) 
-5.791

$$$$
P570618
     RDKit          3D

 25 28  0  0  0  0  0  0  0  0999 V2000
    8.9651   15.4606   24.6950 C   0  0  0  0  0  0  0  0  0  0  0  0
   10.2391   15.0291   24.0051 C   0  0  0  0  0  0  0  0  0  0  0  0
   11.0435   14.2512   24.8607 C   0  0  0  0  0  0  0  0  0  0  0  0
   12.0857   13.5065   24.3596 C   0  0  0  0  0  0  0  0  0  0  0  0
   12.3972   13.6424   23.0292 C   0  0  0  0  0  0  0  0  0  0  0  0
   11.7661   14.5600   22.2092 C   0  0  0  0  0  0  0  0  0  0  0  0
   10.5985   15.2108   22.6224 C   0  0  0  0  0  0  0  0  0  0  0  0
    9.7091   15.7323   21.4426 C   0  0  1  0  0  0  0  0  0  0  0  0
    9.6757   17.1810   21.0673 C   0  0  0  0  0  0  0  0  0  0  0  0
    9.5968   14.8588   20.2067 C   0  0  0  0  0  0  0  0  0  0  0  0
    8.4749   14.8826   21.1872 C   0  0  1  0  0  0  0  0  0  0  0  0
    8.3102   13.8060   22.0588 N   0  0  0  0  0  0  0  0  0  0  0  0
    7.3424   13.6079   23.2115 C   0  0  0  0  0  0  0  0  0  0  0  0
    6.4670   14.2738   23.5832 O   0  0  0  0  0  0  0  0  0  0  0  0
    7.7958   12.3864   23.8888 C   0  0  0  0  0  0  0  0  0  0  0  0
    8.7379   11.5709   23.3598 N   0  0  0  0  0  0  0  0  0  0  0  0
    8.5406   10.4068   24.0104 N   0  0  0  0  0  0  0  0  0  0  0  0
    9.2427    9.2225   23.5612 C   0  0  0  0  0  0  0  0  0  0  0  0
    7.5807   10.5182   24.9877 C   0  0  0  0  0  0  0  0  0  0  0  0
    6.8940    9.5959   25.7614 C   0  0  0  0  0  0  0  0  0  0  0  0
    5.9800   10.0644   26.7114 C   0  0  0  0  0  0  0  0  0  0  0  0
    5.7585   11.4237   26.8601 C   0  0  0  0  0  0  0  0  0  0  0  0
    4.9144   11.8662   27.7962 F   0  0  0  0  0  0  0  0  0  0  0  0
    6.3582   12.3439   26.0236 C   0  0  0  0  0  0  0  0  0  0  0  0
    7.2509   11.8625   25.0594 C   0  0  0  0  0  0  0  0  0  0  0  0
  1  2  1  0
  2  3  2  0
  3  4  1  0
  4  5  2  0
  5  6  1  0
  6  7  2  0
  7  8  1  0
  8  9  1  6
  8 10  1  0
 10 11  1  0
 11 12  1  1
 12 13  1  0
 13 14  2  0
 13 15  1  0
 15 16  2  0
 16 17  1  0
 17 18  1  0
 17 19  1  0
 19 20  2  0
 20 21  1  0
 21 22  2  0
 22 23  1  0
 22 24  1  0
 24 25  2  0
  7  2  1  0
 11  8  1  0
 25 15  1  0
 25 19  1  0
M  END
>  <alias>  (341) 
None

>  <rmsd(smina/fragmenstein)>  (341) 
0.397

>  <smiles>  (341) 
Cc1ccccc1[C@@]1(C)C[C@H]1NC(=O)c1nn(C)c2ccc(F)cc12

>  <gnina_score>  (341) 
6.003

>  <inspiration_score>  (341) 
None

>  <energy_score>  (341) 
-0.27644

>  <distance_score>  (341) 
1.68935

>  <gnina_score_min>  (341) 
5.894

>  <inchikey>  (341) 
TUMYVSUTDWJIEM-YLJYHZDGSA-N

>  <exports>  (341) 
['/opt/xchem-fragalysis-2/maxwin/BulkDock/OUTPUTS/openbind_a71ev2a_c2_elabs_1LOUU54.sdf', '/opt/xchem-fragalysis-2/maxwin/BulkDock/OUTPUTS/openbind_a71ev2a_c2_elabs_1LSYIDY.sdf']

>  <name>  (341) 
P570618

>  <ref_pdb>  (341) 
A2339a

>  <subsites>  (341) 
None

>  <HIPPO Pose ID>  (341) 
570618

>  <ref_mols>  (341) 
A2339a

>  <HIPPO Compound ID>  (341) 
411731

>  <tags>  (341) 
openbind_a71ev2a_c2_elabs,syndirella_product,openbind_a71ev2a_c2_elabs_scored,BulkDock Fragalysis export,openbind_a71ev2a_c2_elabs_scored_top80percent,openbind_a71ev2a_c2_elabs_scored_top80percent_despaghettified,syndirella_placed

>  <smina_score_min>  (341) 
-5.777

$$$$
P570619
     RDKit          3D

 25 28  0  0  0  0  0  0  0  0999 V2000
    9.2716    9.1247   23.4592 C   0  0  0  0  0  0  0  0  0  0  0  0
    8.8000   10.3239   24.1192 N   0  0  0  0  0  0  0  0  0  0  0  0
    9.3977   11.4953   23.8237 N   0  0  0  0  0  0  0  0  0  0  0  0
    8.8299   12.3750   24.6732 C   0  0  0  0  0  0  0  0  0  0  0  0
    8.9683   13.8103   24.5219 C   0  0  0  0  0  0  0  0  0  0  0  0
    9.0286   14.5988   25.3720 O   0  0  0  0  0  0  0  0  0  0  0  0
    8.9090   13.9870   23.0195 N   0  0  0  0  0  0  0  0  0  0  0  0
    8.8181   15.1348   22.2502 C   0  0  0  0  0  0  0  0  0  0  0  0
   10.0283   15.9980   22.1624 C   0  0  0  0  0  0  0  0  0  0  0  0
   10.8854   15.5571   21.0520 C   0  0  0  0  0  0  0  0  0  0  0  0
   10.6110   16.1384   19.8087 C   0  0  0  0  0  0  0  0  0  0  0  0
   11.2093   15.6423   18.6916 C   0  0  0  0  0  0  0  0  0  0  0  0
   12.0223   14.5580   18.7990 C   0  0  0  0  0  0  0  0  0  0  0  0
   12.3374   14.0198   20.0300 C   0  0  0  0  0  0  0  0  0  0  0  0
   11.7851   14.5174   21.1828 C   0  0  0  0  0  0  0  0  0  0  0  0
   12.1711   13.6961   22.8444 Br  0  0  0  0  0  0  0  0  0  0  0  0
    7.5176   15.8375   22.0245 C   0  0  0  0  0  0  0  0  0  0  0  0
    7.9957   14.8374   21.0320 C   0  0  0  0  0  0  0  0  0  0  0  0
    7.7741   11.8069   25.3938 C   0  0  0  0  0  0  0  0  0  0  0  0
    6.7910   12.3215   26.2516 C   0  0  0  0  0  0  0  0  0  0  0  0
    5.8672   11.4407   26.7822 C   0  0  0  0  0  0  0  0  0  0  0  0
    4.9504   11.9116   27.6330 F   0  0  0  0  0  0  0  0  0  0  0  0
    5.8952   10.0923   26.4681 C   0  0  0  0  0  0  0  0  0  0  0  0
    6.8478    9.5958   25.5740 C   0  0  0  0  0  0  0  0  0  0  0  0
    7.7782   10.4704   25.0280 C   0  0  0  0  0  0  0  0  0  0  0  0
  1  2  1  0
  2  3  1  0
  3  4  2  0
  4  5  1  0
  5  6  2  0
  5  7  1  0
  7  8  1  0
  8  9  1  0
  9 10  1  0
 10 11  2  0
 11 12  1  0
 12 13  2  0
 13 14  1  0
 14 15  2  0
 15 16  1  0
  8 17  1  0
 17 18  1  0
  4 19  1  0
 19 20  2  0
 20 21  1  0
 21 22  1  0
 21 23  2  0
 23 24  1  0
 24 25  2  0
 25  2  1  0
 18  8  1  0
 25 19  1  0
 15 10  1  0
M  END
>  <alias>  (342) 
None

>  <rmsd(smina/fragmenstein)>  (342) 
0.573

>  <smiles>  (342) 
Cn1nc(C(=O)NC2(Cc3ccccc3Br)CC2)c2cc(F)ccc21

>  <gnina_score>  (342) 
6.038

>  <inspiration_score>  (342) 
None

>  <energy_score>  (342) 
-10.805276

>  <distance_score>  (342) 
1.744138

>  <gnina_score_min>  (342) 
6.111

>  <inchikey>  (342) 
WASNRVSYALPKFR-UHFFFAOYSA-N

>  <exports>  (342) 
['/opt/xchem-fragalysis-2/maxwin/BulkDock/OUTPUTS/openbind_a71ev2a_c2_elabs_1LOUU54.sdf', '/opt/xchem-fragalysis-2/maxwin/BulkDock/OUTPUTS/openbind_a71ev2a_c2_elabs_1LSYIDY.sdf']

>  <name>  (342) 
P570619

>  <ref_pdb>  (342) 
A2339a

>  <subsites>  (342) 
None

>  <HIPPO Pose ID>  (342) 
570619

>  <ref_mols>  (342) 
A2339a

>  <HIPPO Compound ID>  (342) 
411732

>  <tags>  (342) 
openbind_a71ev2a_c2_elabs,syndirella_product,openbind_a71ev2a_c2_elabs_scored,BulkDock Fragalysis export,openbind_a71ev2a_c2_elabs_scored_top80percent,openbind_a71ev2a_c2_elabs_scored_6plus,openbind_a71ev2a_c2_elabs_scored_top80percent_despaghettified,syndirella_placed

>  <smina_score_min>  (342) 
-5.969

$$$$
P570620
     RDKit          3D

 25 28  0  0  0  0  0  0  0  0999 V2000
    9.5152   15.9223   19.0605 C   0  0  0  0  0  0  0  0  0  0  0  0
   10.5620   15.3947   19.8994 C   0  0  0  0  0  0  0  0  0  0  0  0
   11.7141   15.0207   19.2565 C   0  0  0  0  0  0  0  0  0  0  0  0
   12.6032   14.3205   19.9859 C   0  0  0  0  0  0  0  0  0  0  0  0
   12.3075   13.9720   21.2829 C   0  0  0  0  0  0  0  0  0  0  0  0
   11.2019   14.4444   21.9634 C   0  0  0  0  0  0  0  0  0  0  0  0
   11.0483   14.0624   23.3750 C   0  0  0  0  0  0  0  0  0  0  0  0
   10.0207   13.1941   23.6015 N   0  0  0  0  0  0  0  0  0  0  0  0
    8.7326   13.3736   24.3770 C   0  0  0  0  0  0  0  0  0  0  0  0
    8.2880   14.3135   24.8920 O   0  0  0  0  0  0  0  0  0  0  0  0
    8.1845   12.0572   24.4346 C   0  0  0  0  0  0  0  0  0  0  0  0
    8.7609   11.0544   23.7507 N   0  0  0  0  0  0  0  0  0  0  0  0
    8.1754    9.9648   24.2427 N   0  0  0  0  0  0  0  0  0  0  0  0
    8.7075    8.6998   23.8031 C   0  0  0  0  0  0  0  0  0  0  0  0
    7.2030   10.2616   25.1713 C   0  0  0  0  0  0  0  0  0  0  0  0
    6.2908    9.5174   25.9020 C   0  0  0  0  0  0  0  0  0  0  0  0
    5.5105   10.1481   26.8741 C   0  0  0  0  0  0  0  0  0  0  0  0
    5.5884   11.5158   27.0530 C   0  0  0  0  0  0  0  0  0  0  0  0
    4.8443   12.1139   27.9860 F   0  0  0  0  0  0  0  0  0  0  0  0
    6.4214   12.2901   26.2762 C   0  0  0  0  0  0  0  0  0  0  0  0
    7.2198   11.6384   25.3295 C   0  0  0  0  0  0  0  0  0  0  0  0
   11.2796   15.0675   24.4399 C   0  0  0  0  0  0  0  0  0  0  0  0
   12.2735   13.9613   24.2127 C   0  0  0  0  0  0  0  0  0  0  0  0
   10.2920   15.1933   21.2545 C   0  0  0  0  0  0  0  0  0  0  0  0
    8.9763   15.6238   21.8421 C   0  0  0  0  0  0  0  0  0  0  0  0
  1  2  1  0
  2  3  2  0
  3  4  1  0
  4  5  2  0
  5  6  1  0
  6  7  1  0
  7  8  1  0
  8  9  1  0
  9 10  2  0
  9 11  1  0
 11 12  2  0
 12 13  1  0
 13 14  1  0
 13 15  1  0
 15 16  2  0
 16 17  1  0
 17 18  2  0
 18 19  1  0
 18 20  1  0
 20 21  2  0
  7 22  1  0
 22 23  1  0
  6 24  2  0
 24 25  1  0
 24  2  1  0
 23  7  1  0
 21 11  1  0
 21 15  1  0
M  END
>  <alias>  (343) 
None

>  <rmsd(smina/fragmenstein)>  (343) 
1.334

>  <smiles>  (343) 
Cc1cccc(C2(NC(=O)c3nn(C)c4ccc(F)cc34)CC2)c1C

>  <gnina_score>  (343) 
5.928

>  <inspiration_score>  (343) 
None

>  <energy_score>  (343) 
-13.670614

>  <distance_score>  (343) 
1.834832

>  <gnina_score_min>  (343) 
5.536

>  <inchikey>  (343) 
ZBANCQHTTCIJNQ-UHFFFAOYSA-N

>  <exports>  (343) 
['/opt/xchem-fragalysis-2/maxwin/BulkDock/OUTPUTS/openbind_a71ev2a_c2_elabs_1LOUU54.sdf', '/opt/xchem-fragalysis-2/maxwin/BulkDock/OUTPUTS/openbind_a71ev2a_c2_elabs_1LSYIDY.sdf']

>  <name>  (343) 
P570620

>  <ref_pdb>  (343) 
A2339a

>  <subsites>  (343) 
None

>  <HIPPO Pose ID>  (343) 
570620

>  <ref_mols>  (343) 
A2339a

>  <HIPPO Compound ID>  (343) 
411733

>  <tags>  (343) 
openbind_a71ev2a_c2_elabs,syndirella_product,openbind_a71ev2a_c2_elabs_scored,BulkDock Fragalysis export,openbind_a71ev2a_c2_elabs_scored_top80percent,openbind_a71ev2a_c2_elabs_scored_top80percent_despaghettified,syndirella_placed

>  <smina_score_min>  (343) 
-6.858

$$$$
P570622
     RDKit          3D

 25 28  0  0  0  0  0  0  0  0999 V2000
    8.9109    8.8627   23.7217 C   0  0  0  0  0  0  0  0  0  0  0  0
    8.4490   10.1217   24.2598 N   0  0  0  0  0  0  0  0  0  0  0  0
    9.0981   11.2406   23.9003 N   0  0  0  0  0  0  0  0  0  0  0  0
    8.5711   12.1823   24.7098 C   0  0  0  0  0  0  0  0  0  0  0  0
    9.0195   13.5557   24.6816 C   0  0  0  0  0  0  0  0  0  0  0  0
    8.7121   14.3651   25.4493 O   0  0  0  0  0  0  0  0  0  0  0  0
    9.8406   13.6622   23.4252 N   0  0  0  0  0  0  0  0  0  0  0  0
   10.3847   14.7840   22.7833 C   0  0  1  0  0  0  0  0  0  0  0  0
   11.8321   14.5086   22.4426 C   0  0  0  0  0  0  0  0  0  0  0  0
   12.3301   15.7217   21.7098 C   0  0  0  0  0  0  0  0  0  0  0  0
   11.5071   15.9740   20.5516 N   0  0  0  0  0  0  0  0  0  0  0  0
   11.7125   14.9743   19.5366 C   0  0  0  0  0  0  0  0  0  0  0  0
   10.6823   14.6324   18.5346 C   0  0  0  0  0  0  0  0  0  0  0  0
   11.7807   15.5128   18.1627 C   0  0  0  0  0  0  0  0  0  0  0  0
   10.1157   16.2939   20.8592 C   0  0  0  0  0  0  0  0  0  0  0  0
    9.5002   15.1228   21.5752 C   0  0  2  0  0  0  0  0  0  0  0  0
    8.1033   15.3802   21.9644 C   0  0  0  0  0  0  0  0  0  0  0  0
    6.9869   15.4515   22.2756 N   0  0  0  0  0  0  0  0  0  0  0  0
    7.4990   11.7151   25.4592 C   0  0  0  0  0  0  0  0  0  0  0  0
    6.5983   12.3137   26.3493 C   0  0  0  0  0  0  0  0  0  0  0  0
    5.6751   11.5030   26.9752 C   0  0  0  0  0  0  0  0  0  0  0  0
    4.8367   12.0500   27.8588 F   0  0  0  0  0  0  0  0  0  0  0  0
    5.6189   10.1462   26.7157 C   0  0  0  0  0  0  0  0  0  0  0  0
    6.4830    9.5700   25.7823 C   0  0  0  0  0  0  0  0  0  0  0  0
    7.4405   10.3628   25.1651 C   0  0  0  0  0  0  0  0  0  0  0  0
  1  2  1  0
  2  3  1  0
  3  4  2  0
  4  5  1  0
  5  6  2  0
  5  7  1  0
  8  7  1  6
  8  9  1  0
  9 10  1  0
 10 11  1  0
 11 12  1  0
 12 13  1  0
 13 14  1  0
 11 15  1  0
 15 16  1  0
 16 17  1  1
 17 18  3  0
  4 19  1  0
 19 20  2  0
 20 21  1  0
 21 22  1  0
 21 23  2  0
 23 24  1  0
 24 25  2  0
 25  2  1  0
 16  8  1  0
 25 19  1  0
 14 12  1  0
M  END
>  <alias>  (344) 
None

>  <rmsd(smina/fragmenstein)>  (344) 
0.541

>  <smiles>  (344) 
Cn1nc(C(=O)N[C@H]2CCN(C3CC3)C[C@@H]2C#N)c2cc(F)ccc21

>  <gnina_score>  (344) 
6.17

>  <inspiration_score>  (344) 
None

>  <energy_score>  (344) 
-12.40924

>  <distance_score>  (344) 
1.286582

>  <gnina_score_min>  (344) 
5.942

>  <inchikey>  (344) 
YLFBQEGXIIKDFJ-NHYWBVRUSA-N

>  <exports>  (344) 
['/opt/xchem-fragalysis-2/maxwin/BulkDock/OUTPUTS/openbind_a71ev2a_c2_elabs_1LOUU54.sdf', '/opt/xchem-fragalysis-2/maxwin/BulkDock/OUTPUTS/openbind_a71ev2a_c2_elabs_1LSYIDY.sdf']

>  <name>  (344) 
P570622

>  <ref_pdb>  (344) 
A2339a

>  <subsites>  (344) 
None

>  <HIPPO Pose ID>  (344) 
570622

>  <ref_mols>  (344) 
A2339a

>  <HIPPO Compound ID>  (344) 
411736

>  <tags>  (344) 
openbind_a71ev2a_c2_elabs,syndirella_product,openbind_a71ev2a_c2_elabs_scored,BulkDock Fragalysis export,openbind_a71ev2a_c2_elabs_scored_top80percent,openbind_a71ev2a_c2_elabs_scored_top80percent_despaghettified,syndirella_placed

>  <smina_score_min>  (344) 
-5.697

$$$$
P570624
     RDKit          3D

 25 28  0  0  0  0  0  0  0  0999 V2000
    9.0102    8.7669   23.6194 C   0  0  0  0  0  0  0  0  0  0  0  0
    8.6836   10.0803   24.1186 N   0  0  0  0  0  0  0  0  0  0  0  0
    9.4543   11.1178   23.7408 N   0  0  0  0  0  0  0  0  0  0  0  0
    9.0885   12.1031   24.5787 C   0  0  0  0  0  0  0  0  0  0  0  0
    9.7150   13.4260   24.5443 C   0  0  0  0  0  0  0  0  0  0  0  0
    9.7889   14.1010   25.5265 O   0  0  0  0  0  0  0  0  0  0  0  0
   10.0632   13.7015   23.2085 N   0  0  0  0  0  0  0  0  0  0  0  0
   10.5162   14.8881   22.5951 C   0  0  0  0  0  0  0  0  0  0  0  0
    9.4091   15.3975   21.7299 C   0  0  0  0  0  0  0  0  0  0  0  0
    7.6891   14.9186   22.2220 S   0  0  0  0  0  0  0  0  0  0  0  0
    7.5687   13.4870   21.9959 O   0  0  0  0  0  0  0  0  0  0  0  0
    6.7372   15.7863   21.5881 O   0  0  0  0  0  0  0  0  0  0  0  0
    7.4460   15.1245   23.8929 N   0  0  0  0  0  0  0  0  0  0  0  0
    6.6350   16.2936   24.2866 C   0  0  0  0  0  0  0  0  0  0  0  0
    6.3553   16.5545   25.7406 C   0  0  0  0  0  0  0  0  0  0  0  0
    5.2459   16.1142   24.8313 C   0  0  0  0  0  0  0  0  0  0  0  0
    9.5191   16.6819   20.9540 C   0  0  0  0  0  0  0  0  0  0  0  0
    9.6233   15.3671   20.2365 C   0  0  0  0  0  0  0  0  0  0  0  0
    7.9230   11.7656   25.3116 C   0  0  0  0  0  0  0  0  0  0  0  0
    7.0527   12.4438   26.1905 C   0  0  0  0  0  0  0  0  0  0  0  0
    6.0125   11.7382   26.7819 C   0  0  0  0  0  0  0  0  0  0  0  0
    5.1998   12.3642   27.6418 F   0  0  0  0  0  0  0  0  0  0  0  0
    5.8270   10.3914   26.5282 C   0  0  0  0  0  0  0  0  0  0  0  0
    6.6620    9.7221   25.6308 C   0  0  0  0  0  0  0  0  0  0  0  0
    7.7009   10.4272   25.0183 C   0  0  0  0  0  0  0  0  0  0  0  0
  1  2  1  0
  2  3  1  0
  3  4  2  0
  4  5  1  0
  5  6  2  0
  5  7  1  0
  7  8  1  0
  8  9  1  0
  9 10  1  0
 10 11  2  0
 10 12  2  0
 10 13  1  0
 13 14  1  0
 14 15  1  0
 15 16  1  0
  9 17  1  0
 17 18  1  0
  4 19  1  0
 19 20  2  0
 20 21  1  0
 21 22  1  0
 21 23  2  0
 23 24  1  0
 24 25  2  0
 25  2  1  0
 18  9  1  0
 25 19  1  0
 16 14  1  0
M  END
>  <alias>  (345) 
None

>  <rmsd(smina/fragmenstein)>  (345) 
0.572

>  <smiles>  (345) 
Cn1nc(C(=O)NCC2(S(=O)(=O)NC3CC3)CC2)c2cc(F)ccc21

>  <gnina_score>  (345) 
5.989

>  <inspiration_score>  (345) 
None

>  <energy_score>  (345) 
-44.499911

>  <distance_score>  (345) 
1.243154

>  <gnina_score_min>  (345) 
6.178

>  <inchikey>  (345) 
HSOHILBBWUMPDE-UHFFFAOYSA-N

>  <exports>  (345) 
['/opt/xchem-fragalysis-2/maxwin/BulkDock/OUTPUTS/openbind_a71ev2a_c2_elabs_1LOUU54.sdf', '/opt/xchem-fragalysis-2/maxwin/BulkDock/OUTPUTS/openbind_a71ev2a_c2_elabs_1LSYIDY.sdf']

>  <name>  (345) 
P570624

>  <ref_pdb>  (345) 
A2339a

>  <subsites>  (345) 
None

>  <HIPPO Pose ID>  (345) 
570624

>  <ref_mols>  (345) 
A2339a

>  <HIPPO Compound ID>  (345) 
411737

>  <tags>  (345) 
openbind_a71ev2a_c2_elabs,syndirella_product,openbind_a71ev2a_c2_elabs_scored,BulkDock Fragalysis export,openbind_a71ev2a_c2_elabs_scored_top80percent,openbind_a71ev2a_c2_elabs_scored_6plus,openbind_a71ev2a_c2_elabs_scored_top80percent_despaghettified,syndirella_placed

>  <smina_score_min>  (345) 
-6.186

$$$$
P570625
     RDKit          3D

 25 28  0  0  0  0  0  0  0  0999 V2000
    8.8841    8.9517   23.7835 C   0  0  0  0  0  0  0  0  0  0  0  0
    8.4754   10.2092   24.3697 N   0  0  0  0  0  0  0  0  0  0  0  0
    9.2241   11.2937   24.1289 N   0  0  0  0  0  0  0  0  0  0  0  0
    8.6724   12.2625   24.8938 C   0  0  0  0  0  0  0  0  0  0  0  0
    9.1712   13.6282   24.8040 C   0  0  0  0  0  0  0  0  0  0  0  0
    8.6022   14.5683   25.1797 O   0  0  0  0  0  0  0  0  0  0  0  0
   10.4839   13.5065   24.0473 N   0  0  0  0  0  0  0  0  0  0  0  0
   11.3175   14.4882   23.5154 C   0  0  1  0  0  0  0  0  0  0  0  0
   12.3146   14.3207   22.4049 C   0  0  0  0  0  0  0  0  0  0  0  0
   10.8975   14.4933   22.0264 C   0  0  1  0  0  0  0  0  0  0  0  0
   10.1114   13.3248   21.5436 C   0  0  0  0  0  0  0  0  0  0  0  0
   10.2541   15.6683   21.4654 C   0  0  0  0  0  0  0  0  0  0  0  0
    9.0296   16.0688   21.9732 C   0  0  0  0  0  0  0  0  0  0  0  0
    8.3809   17.1663   21.4606 C   0  0  0  0  0  0  0  0  0  0  0  0
    8.9147   17.8481   20.3977 C   0  0  0  0  0  0  0  0  0  0  0  0
    8.1650   19.3784   19.6089 Br  0  0  0  0  0  0  0  0  0  0  0  0
    9.9914   17.2829   19.7637 C   0  0  0  0  0  0  0  0  0  0  0  0
   10.6633   16.1917   20.2690 C   0  0  0  0  0  0  0  0  0  0  0  0
    7.5306   11.8176   25.5548 C   0  0  0  0  0  0  0  0  0  0  0  0
    6.5962   12.4255   26.3994 C   0  0  0  0  0  0  0  0  0  0  0  0
    5.6390   11.6178   26.9818 C   0  0  0  0  0  0  0  0  0  0  0  0
    4.7785   12.1680   27.8417 F   0  0  0  0  0  0  0  0  0  0  0  0
    5.5713   10.2608   26.7135 C   0  0  0  0  0  0  0  0  0  0  0  0
    6.4496    9.6741   25.8026 C   0  0  0  0  0  0  0  0  0  0  0  0
    7.4452   10.4651   25.2413 C   0  0  0  0  0  0  0  0  0  0  0  0
  1  2  1  0
  2  3  1  0
  3  4  2  0
  4  5  1  0
  5  6  2  0
  5  7  1  0
  8  7  1  1
  8  9  1  0
  9 10  1  0
 10 11  1  1
 10 12  1  0
 12 13  2  0
 13 14  1  0
 14 15  2  0
 15 16  1  0
 15 17  1  0
 17 18  2  0
  4 19  1  0
 19 20  2  0
 20 21  1  0
 21 22  1  0
 21 23  2  0
 23 24  1  0
 24 25  2  0
 25  2  1  0
 10  8  1  0
 18 12  1  0
 25 19  1  0
M  END
>  <alias>  (346) 
None

>  <rmsd(smina/fragmenstein)>  (346) 
1.369

>  <smiles>  (346) 
Cn1nc(C(=O)N[C@H]2C[C@]2(C)c2ccc(Br)cc2)c2cc(F)ccc21

>  <gnina_score>  (346) 
5.97

>  <inspiration_score>  (346) 
None

>  <energy_score>  (346) 
-5.840974

>  <distance_score>  (346) 
1.390062

>  <gnina_score_min>  (346) 
5.637

>  <inchikey>  (346) 
WIRXSZMLTPBGGU-QFBILLFUSA-N

>  <exports>  (346) 
['/opt/xchem-fragalysis-2/maxwin/BulkDock/OUTPUTS/openbind_a71ev2a_c2_elabs_1LOUU54.sdf', '/opt/xchem-fragalysis-2/maxwin/BulkDock/OUTPUTS/openbind_a71ev2a_c2_elabs_1LSYIDY.sdf']

>  <name>  (346) 
P570625

>  <ref_pdb>  (346) 
A2339a

>  <subsites>  (346) 
None

>  <HIPPO Pose ID>  (346) 
570625

>  <ref_mols>  (346) 
A2339a

>  <HIPPO Compound ID>  (346) 
411745

>  <tags>  (346) 
openbind_a71ev2a_c2_elabs,syndirella_product,openbind_a71ev2a_c2_elabs_scored,BulkDock Fragalysis export,openbind_a71ev2a_c2_elabs_scored_top80percent,openbind_a71ev2a_c2_elabs_scored_top80percent_despaghettified,syndirella_placed

>  <smina_score_min>  (346) 
-5.291

$$$$
P570626
     RDKit          3D

 25 28  0  0  0  0  0  0  0  0999 V2000
    8.9725    8.7788   23.6477 C   0  0  0  0  0  0  0  0  0  0  0  0
    8.6230   10.0798   24.1685 N   0  0  0  0  0  0  0  0  0  0  0  0
    9.3943   11.1193   23.8317 N   0  0  0  0  0  0  0  0  0  0  0  0
    8.9304   12.1396   24.5807 C   0  0  0  0  0  0  0  0  0  0  0  0
    9.5406   13.4583   24.4753 C   0  0  0  0  0  0  0  0  0  0  0  0
    9.1623   14.4039   25.0347 O   0  0  0  0  0  0  0  0  0  0  0  0
   10.6437   13.2991   23.4404 N   0  0  0  0  0  0  0  0  0  0  0  0
   11.4401   14.2538   22.8103 C   0  0  1  0  0  0  0  0  0  0  0  0
   12.2479   14.0860   21.5664 C   0  0  0  0  0  0  0  0  0  0  0  0
   10.8069   14.3223   21.4113 C   0  0  1  0  0  0  0  0  0  0  0  0
    9.9863   13.2355   21.1744 F   0  0  0  0  0  0  0  0  0  0  0  0
   10.1250   15.5266   21.0208 C   0  0  0  0  0  0  0  0  0  0  0  0
    9.0128   15.9562   21.7393 C   0  0  0  0  0  0  0  0  0  0  0  0
    8.4000   17.1496   21.4280 C   0  0  0  0  0  0  0  0  0  0  0  0
    8.8946   17.9148   20.4010 C   0  0  0  0  0  0  0  0  0  0  0  0
    8.1496   19.5001   19.7492 Br  0  0  0  0  0  0  0  0  0  0  0  0
    9.9193   17.4060   19.6457 C   0  0  0  0  0  0  0  0  0  0  0  0
   10.5035   16.1915   19.8893 C   0  0  0  0  0  0  0  0  0  0  0  0
    7.7769   11.7845   25.2900 C   0  0  0  0  0  0  0  0  0  0  0  0
    6.8802   12.4686   26.1239 C   0  0  0  0  0  0  0  0  0  0  0  0
    5.8937   11.7334   26.7594 C   0  0  0  0  0  0  0  0  0  0  0  0
    5.0683   12.3560   27.6064 F   0  0  0  0  0  0  0  0  0  0  0  0
    5.7686   10.3679   26.5654 C   0  0  0  0  0  0  0  0  0  0  0  0
    6.6175    9.6984   25.6836 C   0  0  0  0  0  0  0  0  0  0  0  0
    7.6258   10.4219   25.0518 C   0  0  0  0  0  0  0  0  0  0  0  0
  1  2  1  0
  2  3  1  0
  3  4  2  0
  4  5  1  0
  5  6  2  0
  5  7  1  0
  8  7  1  1
  8  9  1  0
  9 10  1  0
 10 11  1  1
 10 12  1  0
 12 13  2  0
 13 14  1  0
 14 15  2  0
 15 16  1  0
 15 17  1  0
 17 18  2  0
  4 19  1  0
 19 20  2  0
 20 21  1  0
 21 22  1  0
 21 23  2  0
 23 24  1  0
 24 25  2  0
 25  2  1  0
 10  8  1  0
 18 12  1  0
 25 19  1  0
M  END
>  <alias>  (347) 
None

>  <rmsd(smina/fragmenstein)>  (347) 
1.513

>  <smiles>  (347) 
Cn1nc(C(=O)N[C@H]2C[C@]2(F)c2ccc(Br)cc2)c2cc(F)ccc21

>  <gnina_score>  (347) 
5.95

>  <inspiration_score>  (347) 
None

>  <energy_score>  (347) 
-6.144452

>  <distance_score>  (347) 
0.999977

>  <gnina_score_min>  (347) 
5.593

>  <inchikey>  (347) 
HZVUMUYCCRMPHJ-YJBOKZPZSA-N

>  <exports>  (347) 
['/opt/xchem-fragalysis-2/maxwin/BulkDock/OUTPUTS/openbind_a71ev2a_c2_elabs_1LOUU54.sdf', '/opt/xchem-fragalysis-2/maxwin/BulkDock/OUTPUTS/openbind_a71ev2a_c2_elabs_1LSYIDY.sdf']

>  <name>  (347) 
P570626

>  <ref_pdb>  (347) 
A2339a

>  <subsites>  (347) 
None

>  <HIPPO Pose ID>  (347) 
570626

>  <ref_mols>  (347) 
A2339a

>  <HIPPO Compound ID>  (347) 
411748

>  <tags>  (347) 
openbind_a71ev2a_c2_elabs,syndirella_product,openbind_a71ev2a_c2_elabs_scored,BulkDock Fragalysis export,openbind_a71ev2a_c2_elabs_scored_top80percent,openbind_a71ev2a_c2_elabs_scored_top80percent_despaghettified,syndirella_placed

>  <smina_score_min>  (347) 
-5.558

$$$$
P570628
     RDKit          3D

 25 28  0  0  0  0  0  0  0  0999 V2000
    9.1983    8.5028   23.0305 C   0  0  0  0  0  0  0  0  0  0  0  0
    9.0528    9.8201   23.5924 N   0  0  0  0  0  0  0  0  0  0  0  0
    9.9131   10.7677   23.1900 N   0  0  0  0  0  0  0  0  0  0  0  0
    9.6528   11.7928   24.0076 C   0  0  0  0  0  0  0  0  0  0  0  0
   10.5977   12.8912   24.1593 C   0  0  0  0  0  0  0  0  0  0  0  0
   10.6197   13.5137   25.1444 O   0  0  0  0  0  0  0  0  0  0  0  0
   11.3699   13.0777   22.8475 N   0  0  0  0  0  0  0  0  0  0  0  0
   12.2484   14.1056   22.4374 C   0  0  1  0  0  0  0  0  0  0  0  0
   12.3545   14.5158   21.0101 C   0  0  0  0  0  0  0  0  0  0  0  0
   11.5357   15.3676   21.9285 C   0  0  2  0  0  0  0  0  0  0  0  0
   12.1182   16.5801   22.2056 F   0  0  0  0  0  0  0  0  0  0  0  0
   10.0403   15.3426   22.0776 C   0  0  0  0  0  0  0  0  0  0  0  0
    9.4453   15.3673   23.3533 C   0  0  0  0  0  0  0  0  0  0  0  0
    8.0881   15.1503   23.5822 C   0  0  0  0  0  0  0  0  0  0  0  0
    7.2979   14.7902   22.5221 C   0  0  0  0  0  0  0  0  0  0  0  0
    7.8645   14.7888   21.2530 C   0  0  0  0  0  0  0  0  0  0  0  0
    9.1869   15.1732   21.0132 C   0  0  0  0  0  0  0  0  0  0  0  0
    9.8681   15.5535   19.2851 Br  0  0  0  0  0  0  0  0  0  0  0  0
    8.4361   11.6091   24.7155 C   0  0  0  0  0  0  0  0  0  0  0  0
    7.6297   12.3728   25.5838 C   0  0  0  0  0  0  0  0  0  0  0  0
    6.5585   11.7664   26.2318 C   0  0  0  0  0  0  0  0  0  0  0  0
    5.8106   12.4816   27.0823 F   0  0  0  0  0  0  0  0  0  0  0  0
    6.3069   10.4167   26.0786 C   0  0  0  0  0  0  0  0  0  0  0  0
    7.1052    9.6529   25.2265 C   0  0  0  0  0  0  0  0  0  0  0  0
    8.1350   10.2697   24.5134 C   0  0  0  0  0  0  0  0  0  0  0  0
  1  2  1  0
  2  3  1  0
  3  4  2  0
  4  5  1  0
  5  6  2  0
  5  7  1  0
  8  7  1  6
  8  9  1  0
  9 10  1  0
 10 11  1  1
 10 12  1  0
 12 13  2  0
 13 14  1  0
 14 15  2  0
 15 16  1  0
 16 17  2  0
 17 18  1  0
  4 19  1  0
 19 20  2  0
 20 21  1  0
 21 22  1  0
 21 23  2  0
 23 24  1  0
 24 25  2  0
 25  2  1  0
 10  8  1  0
 17 12  1  0
 25 19  1  0
M  END
>  <alias>  (348) 
None

>  <rmsd(smina/fragmenstein)>  (348) 
0.35

>  <smiles>  (348) 
Cn1nc(C(=O)N[C@H]2C[C@@]2(F)c2ccccc2Br)c2cc(F)ccc21

>  <gnina_score>  (348) 
6.439

>  <inspiration_score>  (348) 
None

>  <energy_score>  (348) 
-12.580701

>  <distance_score>  (348) 
0.882266

>  <gnina_score_min>  (348) 
6.349

>  <inchikey>  (348) 
VUKRWOXFOCHFLZ-MAUKXSAKSA-N

>  <exports>  (348) 
['/opt/xchem-fragalysis-2/maxwin/BulkDock/OUTPUTS/openbind_a71ev2a_c2_elabs_1LOUU54.sdf', '/opt/xchem-fragalysis-2/maxwin/BulkDock/OUTPUTS/openbind_a71ev2a_c2_elabs_1LSYIDY.sdf']

>  <name>  (348) 
P570628

>  <ref_pdb>  (348) 
A2339a

>  <subsites>  (348) 
None

>  <HIPPO Pose ID>  (348) 
570628

>  <ref_mols>  (348) 
A2339a

>  <HIPPO Compound ID>  (348) 
411749

>  <tags>  (348) 
openbind_a71ev2a_c2_elabs,syndirella_product,openbind_a71ev2a_c2_elabs_scored,BulkDock Fragalysis export,openbind_a71ev2a_c2_elabs_scored_top80percent,openbind_a71ev2a_c2_elabs_scored_6plus,openbind_a71ev2a_c2_elabs_scored_top80percent_despaghettified,syndirella_placed

>  <smina_score_min>  (348) 
-5.816

$$$$
P570629
     RDKit          3D

 25 28  0  0  0  0  0  0  0  0999 V2000
    9.4314    8.7184   23.3952 C   0  0  0  0  0  0  0  0  0  0  0  0
    9.0726   10.0255   23.8880 N   0  0  0  0  0  0  0  0  0  0  0  0
    9.7856   11.0841   23.4558 N   0  0  0  0  0  0  0  0  0  0  0  0
    9.3812   12.0842   24.2525 C   0  0  0  0  0  0  0  0  0  0  0  0
    9.7247   13.4663   24.0184 C   0  0  0  0  0  0  0  0  0  0  0  0
   10.3323   14.1675   24.7189 O   0  0  0  0  0  0  0  0  0  0  0  0
    9.0102   13.7577   22.7077 N   0  0  0  0  0  0  0  0  0  0  0  0
    8.8094   14.9540   22.0368 C   0  0  0  0  0  0  0  0  0  0  0  0
    7.3818   15.3852   22.3990 C   0  0  0  0  0  0  0  0  0  0  0  0
    6.2703   14.9452   21.6648 C   0  0  0  0  0  0  0  0  0  0  0  0
    4.9477   15.2307   22.0360 C   0  0  0  0  0  0  0  0  0  0  0  0
    4.6970   15.9354   23.2037 C   0  0  0  0  0  0  0  0  0  0  0  0
    3.0814   16.3072   23.6567 Cl  0  0  0  0  0  0  0  0  0  0  0  0
    5.7508   16.2867   24.0275 C   0  0  0  0  0  0  0  0  0  0  0  0
    7.0545   15.9676   23.6413 C   0  0  0  0  0  0  0  0  0  0  0  0
    8.0043   16.1007   24.5814 F   0  0  0  0  0  0  0  0  0  0  0  0
    9.9120   15.9206   21.6996 C   0  0  0  0  0  0  0  0  0  0  0  0
    9.4076   15.0057   20.6452 C   0  0  0  0  0  0  0  0  0  0  0  0
    8.2286   11.7287   24.9954 C   0  0  0  0  0  0  0  0  0  0  0  0
    7.2961   12.4294   25.7856 C   0  0  0  0  0  0  0  0  0  0  0  0
    6.2787   11.7111   26.4007 C   0  0  0  0  0  0  0  0  0  0  0  0
    5.4245   12.3495   27.2095 F   0  0  0  0  0  0  0  0  0  0  0  0
    6.1612   10.3424   26.2282 C   0  0  0  0  0  0  0  0  0  0  0  0
    7.0537    9.6579   25.3993 C   0  0  0  0  0  0  0  0  0  0  0  0
    8.0722   10.3706   24.7682 C   0  0  0  0  0  0  0  0  0  0  0  0
  1  2  1  0
  2  3  1  0
  3  4  2  0
  4  5  1  0
  5  6  2  0
  5  7  1  0
  7  8  1  0
  8  9  1  0
  9 10  2  0
 10 11  1  0
 11 12  2  0
 12 13  1  0
 12 14  1  0
 14 15  2  0
 15 16  1  0
  8 17  1  0
 17 18  1  0
  4 19  1  0
 19 20  2  0
 20 21  1  0
 21 22  1  0
 21 23  2  0
 23 24  1  0
 24 25  2  0
 25  2  1  0
 18  8  1  0
 25 19  1  0
 15  9  1  0
M  END
>  <alias>  (349) 
None

>  <rmsd(smina/fragmenstein)>  (349) 
0.996

>  <smiles>  (349) 
Cn1nc(C(=O)NC2(c3ccc(Cl)cc3F)CC2)c2cc(F)ccc21

>  <gnina_score>  (349) 
6.014

>  <inspiration_score>  (349) 
None

>  <energy_score>  (349) 
-19.618779

>  <distance_score>  (349) 
1.087363

>  <gnina_score_min>  (349) 
6.212

>  <inchikey>  (349) 
ICMIIZOHADMAEQ-UHFFFAOYSA-N

>  <exports>  (349) 
['/opt/xchem-fragalysis-2/maxwin/BulkDock/OUTPUTS/openbind_a71ev2a_c2_elabs_1LOUU54.sdf', '/opt/xchem-fragalysis-2/maxwin/BulkDock/OUTPUTS/openbind_a71ev2a_c2_elabs_1LSYIDY.sdf']

>  <name>  (349) 
P570629

>  <ref_pdb>  (349) 
A2339a

>  <subsites>  (349) 
None

>  <HIPPO Pose ID>  (349) 
570629

>  <ref_mols>  (349) 
A2339a

>  <HIPPO Compound ID>  (349) 
411750

>  <tags>  (349) 
openbind_a71ev2a_c2_elabs,syndirella_product,openbind_a71ev2a_c2_elabs_scored,BulkDock Fragalysis export,openbind_a71ev2a_c2_elabs_scored_top80percent,openbind_a71ev2a_c2_elabs_scored_6plus,openbind_a71ev2a_c2_elabs_scored_top80percent_despaghettified,syndirella_placed

>  <smina_score_min>  (349) 
-6.797

$$$$
P570633
     RDKit          3D

 25 28  0  0  0  0  0  0  0  0999 V2000
    9.3920    8.2960   23.4418 C   0  0  0  0  0  0  0  0  0  0  0  0
    8.9174    9.6139   23.7533 N   0  0  0  0  0  0  0  0  0  0  0  0
    9.4525   10.6323   23.0630 N   0  0  0  0  0  0  0  0  0  0  0  0
    8.6256   11.6237   23.3744 C   0  0  0  0  0  0  0  0  0  0  0  0
    8.6060   12.9058   22.7783 C   0  0  0  0  0  0  0  0  0  0  0  0
    7.7202   13.3346   22.1730 O   0  0  0  0  0  0  0  0  0  0  0  0
    9.8918   13.5403   23.2010 N   0  0  0  0  0  0  0  0  0  0  0  0
   10.3352   14.8265   23.0680 C   0  0  0  0  0  0  0  0  0  0  0  0
   10.0588   15.2989   24.5023 C   0  0  0  0  0  0  0  0  0  0  0  0
   11.0714   15.1204   25.4628 C   0  0  0  0  0  0  0  0  0  0  0  0
   10.8834   15.3630   26.8272 C   0  0  0  0  0  0  0  0  0  0  0  0
    9.6297   15.7271   27.2856 C   0  0  0  0  0  0  0  0  0  0  0  0
    9.4464   15.9483   28.5921 F   0  0  0  0  0  0  0  0  0  0  0  0
    8.5628   15.8266   26.4118 C   0  0  0  0  0  0  0  0  0  0  0  0
    8.7646   15.5895   25.0432 C   0  0  0  0  0  0  0  0  0  0  0  0
    7.3440   15.7099   24.0575 Cl  0  0  0  0  0  0  0  0  0  0  0  0
   11.4768   15.2030   22.1723 C   0  0  0  0  0  0  0  0  0  0  0  0
   10.0771   15.5822   21.7945 C   0  0  0  0  0  0  0  0  0  0  0  0
    7.8416   11.3801   24.5093 C   0  0  0  0  0  0  0  0  0  0  0  0
    6.9890   12.1400   25.3348 C   0  0  0  0  0  0  0  0  0  0  0  0
    6.2094   11.4823   26.2705 C   0  0  0  0  0  0  0  0  0  0  0  0
    5.4210   12.1865   27.0913 F   0  0  0  0  0  0  0  0  0  0  0  0
    6.2237   10.1061   26.3440 C   0  0  0  0  0  0  0  0  0  0  0  0
    7.0876    9.3747   25.5221 C   0  0  0  0  0  0  0  0  0  0  0  0
    7.9470   10.0168   24.6470 C   0  0  0  0  0  0  0  0  0  0  0  0
  1  2  1  0
  2  3  1  0
  3  4  2  0
  4  5  1  0
  5  6  2  0
  5  7  1  0
  7  8  1  0
  8  9  1  0
  9 10  2  0
 10 11  1  0
 11 12  2  0
 12 13  1  0
 12 14  1  0
 14 15  2  0
 15 16  1  0
  8 17  1  0
 17 18  1  0
  4 19  1  0
 19 20  2  0
 20 21  1  0
 21 22  1  0
 21 23  2  0
 23 24  1  0
 24 25  2  0
 25  2  1  0
 18  8  1  0
 25 19  1  0
 15  9  1  0
M  END
>  <alias>  (350) 
None

>  <rmsd(smina/fragmenstein)>  (350) 
0.523

>  <smiles>  (350) 
Cn1nc(C(=O)NC2(c3ccc(F)cc3Cl)CC2)c2cc(F)ccc21

>  <gnina_score>  (350) 
6.304

>  <inspiration_score>  (350) 
None

>  <energy_score>  (350) 
-20.322358

>  <distance_score>  (350) 
1.163153

>  <gnina_score_min>  (350) 
6.231

>  <inchikey>  (350) 
FZIDWXUXYUHWIK-UHFFFAOYSA-N

>  <exports>  (350) 
['/opt/xchem-fragalysis-2/maxwin/BulkDock/OUTPUTS/openbind_a71ev2a_c2_elabs_1LOUU54.sdf', '/opt/xchem-fragalysis-2/maxwin/BulkDock/OUTPUTS/openbind_a71ev2a_c2_elabs_1LSYIDY.sdf']

>  <name>  (350) 
P570633

>  <ref_pdb>  (350) 
A2339a

>  <subsites>  (350) 
None

>  <HIPPO Pose ID>  (350) 
570633

>  <ref_mols>  (350) 
A2339a

>  <HIPPO Compound ID>  (350) 
411769

>  <tags>  (350) 
openbind_a71ev2a_c2_elabs,syndirella_product,openbind_a71ev2a_c2_elabs_scored,BulkDock Fragalysis export,openbind_a71ev2a_c2_elabs_scored_top80percent,openbind_a71ev2a_c2_elabs_scored_6plus,openbind_a71ev2a_c2_elabs_scored_top80percent_despaghettified,syndirella_placed

>  <smina_score_min>  (350) 
-5.682

$$$$
P570634
     RDKit          3D

 25 28  0  0  0  0  0  0  0  0999 V2000
    9.3580    8.2878   23.2829 C   0  0  0  0  0  0  0  0  0  0  0  0
    9.0815    9.6316   23.7051 N   0  0  0  0  0  0  0  0  0  0  0  0
    9.8591   10.6072   23.2135 N   0  0  0  0  0  0  0  0  0  0  0  0
    9.4859   11.6701   23.9126 C   0  0  0  0  0  0  0  0  0  0  0  0
   10.0018   12.9891   23.7384 C   0  0  0  0  0  0  0  0  0  0  0  0
   10.9456   13.4290   24.2560 O   0  0  0  0  0  0  0  0  0  0  0  0
    8.9752   13.6500   22.8264 N   0  0  0  0  0  0  0  0  0  0  0  0
    8.8341   14.9647   22.4420 C   0  0  0  0  0  0  0  0  0  0  0  0
    7.8289   15.5246   23.4661 C   0  0  0  0  0  0  0  0  0  0  0  0
    8.2674   15.7581   24.7989 C   0  0  0  0  0  0  0  0  0  0  0  0
    7.4138   16.1607   25.8302 C   0  0  0  0  0  0  0  0  0  0  0  0
    6.0605   16.2595   25.5760 C   0  0  0  0  0  0  0  0  0  0  0  0
    5.2242   16.5960   26.5661 F   0  0  0  0  0  0  0  0  0  0  0  0
    5.5561   15.9165   24.3343 C   0  0  0  0  0  0  0  0  0  0  0  0
    6.4265   15.5274   23.3036 C   0  0  0  0  0  0  0  0  0  0  0  0
    5.5973   14.7241   21.7957 Br  0  0  0  0  0  0  0  0  0  0  0  0
    8.9043   15.4465   21.0292 C   0  0  0  0  0  0  0  0  0  0  0  0
   10.0938   15.6126   21.9014 C   0  0  0  0  0  0  0  0  0  0  0  0
    8.3349   11.4380   24.7069 C   0  0  0  0  0  0  0  0  0  0  0  0
    7.4793   12.2210   25.5100 C   0  0  0  0  0  0  0  0  0  0  0  0
    6.4516   11.6038   26.2104 C   0  0  0  0  0  0  0  0  0  0  0  0
    5.6678   12.3327   27.0147 F   0  0  0  0  0  0  0  0  0  0  0  0
    6.2727   10.2385   26.1369 C   0  0  0  0  0  0  0  0  0  0  0  0
    7.1156    9.4719   25.3292 C   0  0  0  0  0  0  0  0  0  0  0  0
    8.1246   10.0809   24.5889 C   0  0  0  0  0  0  0  0  0  0  0  0
  1  2  1  0
  2  3  1  0
  3  4  2  0
  4  5  1  0
  5  6  2  0
  5  7  1  0
  7  8  1  0
  8  9  1  0
  9 10  2  0
 10 11  1  0
 11 12  2  0
 12 13  1  0
 12 14  1  0
 14 15  2  0
 15 16  1  0
  8 17  1  0
 17 18  1  0
  4 19  1  0
 19 20  2  0
 20 21  1  0
 21 22  1  0
 21 23  2  0
 23 24  1  0
 24 25  2  0
 25  2  1  0
 18  8  1  0
 25 19  1  0
 15  9  1  0
M  END
>  <alias>  (351) 
None

>  <rmsd(smina/fragmenstein)>  (351) 
0.655

>  <smiles>  (351) 
Cn1nc(C(=O)NC2(c3ccc(F)cc3Br)CC2)c2cc(F)ccc21

>  <gnina_score>  (351) 
6.037

>  <inspiration_score>  (351) 
None

>  <energy_score>  (351) 
-0.999255

>  <distance_score>  (351) 
1.180118

>  <gnina_score_min>  (351) 
5.964

>  <inchikey>  (351) 
IAOWQPXGFGOKNC-UHFFFAOYSA-N

>  <exports>  (351) 
['/opt/xchem-fragalysis-2/maxwin/BulkDock/OUTPUTS/openbind_a71ev2a_c2_elabs_1LOUU54.sdf', '/opt/xchem-fragalysis-2/maxwin/BulkDock/OUTPUTS/openbind_a71ev2a_c2_elabs_1LSYIDY.sdf']

>  <name>  (351) 
P570634

>  <ref_pdb>  (351) 
A2339a

>  <subsites>  (351) 
None

>  <HIPPO Pose ID>  (351) 
570634

>  <ref_mols>  (351) 
A2339a

>  <HIPPO Compound ID>  (351) 
411777

>  <tags>  (351) 
openbind_a71ev2a_c2_elabs,syndirella_product,openbind_a71ev2a_c2_elabs_scored,BulkDock Fragalysis export,openbind_a71ev2a_c2_elabs_scored_top80percent,openbind_a71ev2a_c2_elabs_scored_top80percent_despaghettified,syndirella_placed

>  <smina_score_min>  (351) 
-6.371

$$$$
P570635
     RDKit          3D

 25 28  0  0  0  0  0  0  0  0999 V2000
    8.5607    8.8646   24.0386 C   0  0  0  0  0  0  0  0  0  0  0  0
    7.9253   10.0940   24.4389 N   0  0  0  0  0  0  0  0  0  0  0  0
    8.3329   11.2015   23.8133 N   0  0  0  0  0  0  0  0  0  0  0  0
    7.4790   12.1348   24.2634 C   0  0  0  0  0  0  0  0  0  0  0  0
    7.6094   13.5001   23.8610 C   0  0  0  0  0  0  0  0  0  0  0  0
    6.7356   14.3040   23.9742 O   0  0  0  0  0  0  0  0  0  0  0  0
    8.9444   13.6417   23.4404 N   0  0  0  0  0  0  0  0  0  0  0  0
    9.6766   14.7622   23.1243 C   0  0  0  0  0  0  0  0  0  0  0  0
    9.9968   15.2190   24.5567 C   0  0  0  0  0  0  0  0  0  0  0  0
    8.9593   15.8010   25.3606 C   0  0  0  0  0  0  0  0  0  0  0  0
    9.0774   16.0654   26.7280 C   0  0  0  0  0  0  0  0  0  0  0  0
   10.2438   15.7115   27.3708 C   0  0  0  0  0  0  0  0  0  0  0  0
   11.2252   15.0324   26.6571 C   0  0  0  0  0  0  0  0  0  0  0  0
   12.2771   14.5992   27.3685 F   0  0  0  0  0  0  0  0  0  0  0  0
   11.0952   14.7381   25.2821 C   0  0  0  0  0  0  0  0  0  0  0  0
   12.2574   13.4497   24.4479 Br  0  0  0  0  0  0  0  0  0  0  0  0
   10.6444   14.8332   21.9771 C   0  0  0  0  0  0  0  0  0  0  0  0
    9.3565   15.5926   21.9189 C   0  0  0  0  0  0  0  0  0  0  0  0
    6.7434   11.7125   25.3735 C   0  0  0  0  0  0  0  0  0  0  0  0
    5.9018   12.3325   26.3161 C   0  0  0  0  0  0  0  0  0  0  0  0
    5.2490   11.5306   27.2375 C   0  0  0  0  0  0  0  0  0  0  0  0
    4.4493   12.0938   28.1504 F   0  0  0  0  0  0  0  0  0  0  0  0
    5.3681   10.1554   27.1881 C   0  0  0  0  0  0  0  0  0  0  0  0
    6.1923    9.5628   26.2293 C   0  0  0  0  0  0  0  0  0  0  0  0
    6.9595   10.3471   25.3862 C   0  0  0  0  0  0  0  0  0  0  0  0
  1  2  1  0
  2  3  1  0
  3  4  2  0
  4  5  1  0
  5  6  2  0
  5  7  1  0
  7  8  1  0
  8  9  1  0
  9 10  2  0
 10 11  1  0
 11 12  2  0
 12 13  1  0
 13 14  1  0
 13 15  2  0
 15 16  1  0
  8 17  1  0
 17 18  1  0
  4 19  1  0
 19 20  2  0
 20 21  1  0
 21 22  1  0
 21 23  2  0
 23 24  1  0
 24 25  2  0
 25  2  1  0
 18  8  1  0
 25 19  1  0
 15  9  1  0
M  END
>  <alias>  (352) 
None

>  <rmsd(smina/fragmenstein)>  (352) 
0.439

>  <smiles>  (352) 
Cn1nc(C(=O)NC2(c3cccc(F)c3Br)CC2)c2cc(F)ccc21

>  <gnina_score>  (352) 
6.059

>  <inspiration_score>  (352) 
None

>  <energy_score>  (352) 
-21.861136

>  <distance_score>  (352) 
1.839883

>  <gnina_score_min>  (352) 
6.079

>  <inchikey>  (352) 
AHRFJSMRYHOGKY-UHFFFAOYSA-N

>  <exports>  (352) 
['/opt/xchem-fragalysis-2/maxwin/BulkDock/OUTPUTS/openbind_a71ev2a_c2_elabs_1LOUU54.sdf', '/opt/xchem-fragalysis-2/maxwin/BulkDock/OUTPUTS/openbind_a71ev2a_c2_elabs_1LSYIDY.sdf']

>  <name>  (352) 
P570635

>  <ref_pdb>  (352) 
A2339a

>  <subsites>  (352) 
None

>  <HIPPO Pose ID>  (352) 
570635

>  <ref_mols>  (352) 
A2339a

>  <HIPPO Compound ID>  (352) 
411784

>  <tags>  (352) 
openbind_a71ev2a_c2_elabs,syndirella_product,openbind_a71ev2a_c2_elabs_scored,BulkDock Fragalysis export,openbind_a71ev2a_c2_elabs_scored_top80percent,openbind_a71ev2a_c2_elabs_scored_6plus,openbind_a71ev2a_c2_elabs_scored_top80percent_despaghettified,syndirella_placed

>  <smina_score_min>  (352) 
-4.312

$$$$
P570636
     RDKit          3D

 25 28  0  0  0  0  0  0  0  0999 V2000
    8.4645   16.2584   27.3214 C   0  0  0  0  0  0  0  0  0  0  0  0
    7.8287   16.0675   25.9784 C   0  0  0  0  0  0  0  0  0  0  0  0
    6.4775   16.3303   25.7863 C   0  0  0  0  0  0  0  0  0  0  0  0
    5.8954   16.0812   24.5459 C   0  0  0  0  0  0  0  0  0  0  0  0
    6.6705   15.6347   23.4653 C   0  0  0  0  0  0  0  0  0  0  0  0
    5.7114   14.9304   21.9872 Br  0  0  0  0  0  0  0  0  0  0  0  0
    8.0685   15.5133   23.5571 C   0  0  0  0  0  0  0  0  0  0  0  0
    8.9783   14.9477   22.4564 C   0  0  0  0  0  0  0  0  0  0  0  0
    9.0634   13.6200   22.8036 N   0  0  0  0  0  0  0  0  0  0  0  0
   10.1006   12.8790   23.6378 C   0  0  0  0  0  0  0  0  0  0  0  0
   11.0977   13.2506   24.1066 O   0  0  0  0  0  0  0  0  0  0  0  0
    9.5220   11.5885   23.8176 C   0  0  0  0  0  0  0  0  0  0  0  0
    9.8794   10.4988   23.1566 N   0  0  0  0  0  0  0  0  0  0  0  0
    9.0814    9.5588   23.6760 N   0  0  0  0  0  0  0  0  0  0  0  0
    9.3502    8.2024   23.3038 C   0  0  0  0  0  0  0  0  0  0  0  0
    8.1384   10.0452   24.5530 C   0  0  0  0  0  0  0  0  0  0  0  0
    7.1243    9.4736   25.3177 C   0  0  0  0  0  0  0  0  0  0  0  0
    6.3022   10.2730   26.1140 C   0  0  0  0  0  0  0  0  0  0  0  0
    6.5080   11.6346   26.1553 C   0  0  0  0  0  0  0  0  0  0  0  0
    5.7500   12.3953   26.9558 F   0  0  0  0  0  0  0  0  0  0  0  0
    7.5385   12.2148   25.4268 C   0  0  0  0  0  0  0  0  0  0  0  0
    8.3712   11.4012   24.6288 C   0  0  0  0  0  0  0  0  0  0  0  0
   10.2469   15.5562   21.8957 C   0  0  0  0  0  0  0  0  0  0  0  0
    9.0165   15.4856   21.0615 C   0  0  0  0  0  0  0  0  0  0  0  0
    8.5928   15.6541   24.8747 C   0  0  0  0  0  0  0  0  0  0  0  0
  1  2  1  0
  2  3  2  0
  3  4  1  0
  4  5  2  0
  5  6  1  0
  5  7  1  0
  7  8  1  0
  8  9  1  0
  9 10  1  0
 10 11  2  0
 10 12  1  0
 12 13  2  0
 13 14  1  0
 14 15  1  0
 14 16  1  0
 16 17  2  0
 17 18  1  0
 18 19  2  0
 19 20  1  0
 19 21  1  0
 21 22  2  0
  8 23  1  0
 23 24  1  0
  7 25  2  0
 25  2  1  0
 24  8  1  0
 22 12  1  0
 22 16  1  0
M  END
>  <alias>  (353) 
None

>  <rmsd(smina/fragmenstein)>  (353) 
0.152

>  <smiles>  (353) 
Cc1ccc(Br)c(C2(NC(=O)c3nn(C)c4ccc(F)cc34)CC2)c1

>  <gnina_score>  (353) 
6.148

>  <inspiration_score>  (353) 
None

>  <energy_score>  (353) 
-1.840598

>  <distance_score>  (353) 
1.16316

>  <gnina_score_min>  (353) 
6.118

>  <inchikey>  (353) 
FUUVXFMSAMJHHY-UHFFFAOYSA-N

>  <exports>  (353) 
['/opt/xchem-fragalysis-2/maxwin/BulkDock/OUTPUTS/openbind_a71ev2a_c2_elabs_1LOUU54.sdf', '/opt/xchem-fragalysis-2/maxwin/BulkDock/OUTPUTS/openbind_a71ev2a_c2_elabs_1LSYIDY.sdf']

>  <name>  (353) 
P570636

>  <ref_pdb>  (353) 
A2339a

>  <subsites>  (353) 
None

>  <HIPPO Pose ID>  (353) 
570636

>  <ref_mols>  (353) 
A2339a

>  <HIPPO Compound ID>  (353) 
411785

>  <tags>  (353) 
openbind_a71ev2a_c2_elabs,syndirella_product,openbind_a71ev2a_c2_elabs_scored,BulkDock Fragalysis export,openbind_a71ev2a_c2_elabs_scored_top80percent,openbind_a71ev2a_c2_elabs_scored_6plus,openbind_a71ev2a_c2_elabs_scored_top80percent_despaghettified,syndirella_placed

>  <smina_score_min>  (353) 
-6.136

$$$$
P570637
     RDKit          3D

 25 27  0  0  0  0  0  0  0  0999 V2000
    7.5851   16.1026   26.7515 C   0  0  0  0  0  0  0  0  0  0  0  0
    8.8266   15.8608   26.0843 O   0  0  0  0  0  0  0  0  0  0  0  0
    9.8545   15.4966   26.8921 C   0  0  0  0  0  0  0  0  0  0  0  0
    9.7863   15.3924   28.1105 O   0  0  0  0  0  0  0  0  0  0  0  0
   11.1517   15.3347   26.1079 C   0  0  0  0  0  0  0  0  0  0  0  0
   11.0380   15.1295   24.6812 N   0  0  0  0  0  0  0  0  0  0  0  0
   11.9846   14.4100   23.6911 C   0  0  0  0  0  0  0  0  0  0  0  0
   13.0373   13.9395   23.8595 O   0  0  0  0  0  0  0  0  0  0  0  0
   11.2924   14.2710   22.3553 C   0  0  0  0  0  0  0  0  0  0  0  0
   10.3515   13.2981   22.6615 N   0  0  0  0  0  0  0  0  0  0  0  0
    8.9918   13.4145   23.3312 C   0  0  0  0  0  0  0  0  0  0  0  0
    8.3964   14.3519   23.6689 O   0  0  0  0  0  0  0  0  0  0  0  0
    8.5448   12.0673   23.6012 C   0  0  0  0  0  0  0  0  0  0  0  0
    9.2085   11.0066   23.1128 N   0  0  0  0  0  0  0  0  0  0  0  0
    8.6898    9.9636   23.7790 N   0  0  0  0  0  0  0  0  0  0  0  0
    9.2147    8.6514   23.4891 C   0  0  0  0  0  0  0  0  0  0  0  0
    7.7309   10.3317   24.6950 C   0  0  0  0  0  0  0  0  0  0  0  0
    6.9193    9.6177   25.5720 C   0  0  0  0  0  0  0  0  0  0  0  0
    6.0825   10.3165   26.4448 C   0  0  0  0  0  0  0  0  0  0  0  0
    6.0602   11.7001   26.4288 C   0  0  0  0  0  0  0  0  0  0  0  0
    5.2923   12.3569   27.3058 F   0  0  0  0  0  0  0  0  0  0  0  0
    6.8253   12.4211   25.5239 C   0  0  0  0  0  0  0  0  0  0  0  0
    7.6484   11.7150   24.6280 C   0  0  0  0  0  0  0  0  0  0  0  0
   10.9259   15.4762   21.5245 C   0  0  0  0  0  0  0  0  0  0  0  0
   11.9800   14.5260   21.0528 C   0  0  0  0  0  0  0  0  0  0  0  0
  1  2  1  0
  2  3  1  0
  3  4  2  0
  3  5  1  0
  5  6  1  0
  6  7  1  0
  7  8  2  0
  7  9  1  0
  9 10  1  0
 10 11  1  0
 11 12  2  0
 11 13  1  0
 13 14  2  0
 14 15  1  0
 15 16  1  0
 15 17  1  0
 17 18  2  0
 18 19  1  0
 19 20  2  0
 20 21  1  0
 20 22  1  0
 22 23  2  0
  9 24  1  0
 24 25  1  0
 25  9  1  0
 23 13  1  0
 23 17  1  0
M  END
>  <alias>  (354) 
None

>  <rmsd(smina/fragmenstein)>  (354) 
1.032

>  <smiles>  (354) 
COC(=O)CNC(=O)C1(NC(=O)c2nn(C)c3ccc(F)cc23)CC1

>  <gnina_score>  (354) 
5.791

>  <inspiration_score>  (354) 
None

>  <energy_score>  (354) 
-15.117477

>  <distance_score>  (354) 
0.699199

>  <gnina_score_min>  (354) 
5.447

>  <inchikey>  (354) 
GSSCOJAWENFMTC-UHFFFAOYSA-N

>  <exports>  (354) 
['/opt/xchem-fragalysis-2/maxwin/BulkDock/OUTPUTS/openbind_a71ev2a_c2_elabs_1LOUU54.sdf', '/opt/xchem-fragalysis-2/maxwin/BulkDock/OUTPUTS/openbind_a71ev2a_c2_elabs_1LSYIDY.sdf']

>  <name>  (354) 
P570637

>  <ref_pdb>  (354) 
A2339a

>  <subsites>  (354) 
None

>  <HIPPO Pose ID>  (354) 
570637

>  <ref_mols>  (354) 
A2339a

>  <HIPPO Compound ID>  (354) 
411788

>  <tags>  (354) 
openbind_a71ev2a_c2_elabs,syndirella_product,openbind_a71ev2a_c2_elabs_scored,BulkDock Fragalysis export,openbind_a71ev2a_c2_elabs_scored_top80percent,openbind_a71ev2a_c2_elabs_scored_top80percent_despaghettified,syndirella_placed

>  <smina_score_min>  (354) 
-5.104

$$$$
P570638
     RDKit          3D

 25 28  0  0  0  0  0  0  0  0999 V2000
   11.0933   15.2733   25.9458 C   0  0  0  0  0  0  0  0  0  0  0  0
   11.2084   15.3135   24.5236 O   0  0  0  0  0  0  0  0  0  0  0  0
   11.9474   14.3348   23.9322 C   0  0  0  0  0  0  0  0  0  0  0  0
   12.8502   13.6919   24.4533 O   0  0  0  0  0  0  0  0  0  0  0  0
   11.4781   14.0124   22.5535 C   0  0  2  0  0  0  0  0  0  0  0  0
   10.4885   13.0860   22.8333 N   0  0  0  0  0  0  0  0  0  0  0  0
    9.1282   13.2606   23.4981 C   0  0  0  0  0  0  0  0  0  0  0  0
    8.5798   14.2217   23.8512 O   0  0  0  0  0  0  0  0  0  0  0  0
    8.6067   11.9481   23.7397 C   0  0  0  0  0  0  0  0  0  0  0  0
    9.2065   10.8691   23.2218 N   0  0  0  0  0  0  0  0  0  0  0  0
    8.6164    9.8475   23.8516 N   0  0  0  0  0  0  0  0  0  0  0  0
    9.0781    8.5215   23.5313 C   0  0  0  0  0  0  0  0  0  0  0  0
    7.6674   10.2515   24.7653 C   0  0  0  0  0  0  0  0  0  0  0  0
    6.8069    9.5773   25.6247 C   0  0  0  0  0  0  0  0  0  0  0  0
    5.9942   10.3069   26.4950 C   0  0  0  0  0  0  0  0  0  0  0  0
    6.0359   11.6891   26.4904 C   0  0  0  0  0  0  0  0  0  0  0  0
    5.2870   12.3739   27.3619 F   0  0  0  0  0  0  0  0  0  0  0  0
    6.8539   12.3785   25.6093 C   0  0  0  0  0  0  0  0  0  0  0  0
    7.6592   11.6369   24.7250 C   0  0  0  0  0  0  0  0  0  0  0  0
   12.4484   14.2346   21.4438 C   0  0  0  0  0  0  0  0  0  0  0  0
   11.1358   14.8991   21.3619 C   0  0  0  0  0  0  0  0  0  0  0  0
   10.2970   14.4207   20.2413 C   0  0  0  0  0  0  0  0  0  0  0  0
    9.2260   15.4458   20.0827 C   0  0  0  0  0  0  0  0  0  0  0  0
    9.8753   16.7409   20.4904 C   0  0  0  0  0  0  0  0  0  0  0  0
   10.8356   16.3209   21.5977 C   0  0  0  0  0  0  0  0  0  0  0  0
  1  2  1  0
  2  3  1  0
  3  4  2  0
  3  5  1  0
  5  6  1  1
  6  7  1  0
  7  8  2  0
  7  9  1  0
  9 10  2  0
 10 11  1  0
 11 12  1  0
 11 13  1  0
 13 14  2  0
 14 15  1  0
 15 16  2  0
 16 17  1  0
 16 18  1  0
 18 19  2  0
  5 20  1  0
 20 21  1  0
 21 22  1  0
 22 23  1  0
 23 24  1  0
 24 25  1  0
 21  5  1  0
 19  9  1  0
 25 21  1  0
 19 13  1  0
M  END
>  <alias>  (355) 
None

>  <rmsd(smina/fragmenstein)>  (355) 
0.414

>  <smiles>  (355) 
COC(=O)[C@]1(NC(=O)c2nn(C)c3ccc(F)cc23)CC12CCCC2

>  <gnina_score>  (355) 
5.965

>  <inspiration_score>  (355) 
None

>  <energy_score>  (355) 
-92.607089

>  <distance_score>  (355) 
0.783461

>  <gnina_score_min>  (355) 
5.896

>  <inchikey>  (355) 
QJUWFQZCHCAHCP-GOSISDBHSA-N

>  <exports>  (355) 
['/opt/xchem-fragalysis-2/maxwin/BulkDock/OUTPUTS/openbind_a71ev2a_c2_elabs_1LOUU54.sdf', '/opt/xchem-fragalysis-2/maxwin/BulkDock/OUTPUTS/openbind_a71ev2a_c2_elabs_1LSYIDY.sdf']

>  <name>  (355) 
P570638

>  <ref_pdb>  (355) 
A2339a

>  <subsites>  (355) 
None

>  <HIPPO Pose ID>  (355) 
570638

>  <ref_mols>  (355) 
A2339a

>  <HIPPO Compound ID>  (355) 
411792

>  <tags>  (355) 
openbind_a71ev2a_c2_elabs,syndirella_product,openbind_a71ev2a_c2_elabs_scored,BulkDock Fragalysis export,openbind_a71ev2a_c2_elabs_scored_top80percent,openbind_a71ev2a_c2_elabs_scored_top80percent_despaghettified,syndirella_placed

>  <smina_score_min>  (355) 
-4.711

$$$$
P570640
     RDKit          3D

 25 28  0  0  0  0  0  0  0  0999 V2000
    9.3997    8.0672   23.3291 C   0  0  0  0  0  0  0  0  0  0  0  0
    9.0983    9.4350   23.6086 N   0  0  0  0  0  0  0  0  0  0  0  0
    9.8679   10.3383   23.0060 N   0  0  0  0  0  0  0  0  0  0  0  0
    9.5432   11.4615   23.6211 C   0  0  0  0  0  0  0  0  0  0  0  0
   10.1978   12.7092   23.3937 C   0  0  0  0  0  0  0  0  0  0  0  0
   11.3010   12.9537   23.6685 O   0  0  0  0  0  0  0  0  0  0  0  0
    9.0962   13.6023   22.8301 N   0  0  0  0  0  0  0  0  0  0  0  0
    9.0818   14.9559   22.5806 C   0  0  0  0  0  0  0  0  0  0  0  0
    8.1555   15.5155   23.6848 C   0  0  0  0  0  0  0  0  0  0  0  0
    8.5536   15.6437   25.0502 C   0  0  0  0  0  0  0  0  0  0  0  0
   10.1241   15.1455   25.6153 Cl  0  0  0  0  0  0  0  0  0  0  0  0
    7.6929   16.1180   26.0551 C   0  0  0  0  0  0  0  0  0  0  0  0
    6.3744   16.4146   25.7564 C   0  0  0  0  0  0  0  0  0  0  0  0
    5.9053   16.1661   24.4754 C   0  0  0  0  0  0  0  0  0  0  0  0
    6.7677   15.6942   23.4743 C   0  0  0  0  0  0  0  0  0  0  0  0
    6.0011   15.1024   22.0404 Cl  0  0  0  0  0  0  0  0  0  0  0  0
   10.3670   15.5342   22.0296 C   0  0  0  0  0  0  0  0  0  0  0  0
    9.1315   15.5584   21.2002 C   0  0  0  0  0  0  0  0  0  0  0  0
    8.4207   11.3194   24.4897 C   0  0  0  0  0  0  0  0  0  0  0  0
    7.6272   12.1592   25.3029 C   0  0  0  0  0  0  0  0  0  0  0  0
    6.6069   11.6190   26.0763 C   0  0  0  0  0  0  0  0  0  0  0  0
    5.8843   12.4146   26.8756 F   0  0  0  0  0  0  0  0  0  0  0  0
    6.3780   10.2625   26.0782 C   0  0  0  0  0  0  0  0  0  0  0  0
    7.1747    9.4320   25.2897 C   0  0  0  0  0  0  0  0  0  0  0  0
    8.1729    9.9644   24.4761 C   0  0  0  0  0  0  0  0  0  0  0  0
  1  2  1  0
  2  3  1  0
  3  4  2  0
  4  5  1  0
  5  6  2  0
  5  7  1  0
  7  8  1  0
  8  9  1  0
  9 10  2  0
 10 11  1  0
 10 12  1  0
 12 13  2  0
 13 14  1  0
 14 15  2  0
 15 16  1  0
  8 17  1  0
 17 18  1  0
  4 19  1  0
 19 20  2  0
 20 21  1  0
 21 22  1  0
 21 23  2  0
 23 24  1  0
 24 25  2  0
 25  2  1  0
 18  8  1  0
 25 19  1  0
 15  9  1  0
M  END
>  <alias>  (356) 
None

>  <rmsd(smina/fragmenstein)>  (356) 
0.19

>  <smiles>  (356) 
Cn1nc(C(=O)NC2(c3c(Cl)cccc3Cl)CC2)c2cc(F)ccc21

>  <gnina_score>  (356) 
6.406

>  <inspiration_score>  (356) 
None

>  <energy_score>  (356) 
-38.082916

>  <distance_score>  (356) 
1.219325

>  <gnina_score_min>  (356) 
6.378

>  <inchikey>  (356) 
GCNMILGTTJVYNJ-UHFFFAOYSA-N

>  <exports>  (356) 
['/opt/xchem-fragalysis-2/maxwin/BulkDock/OUTPUTS/openbind_a71ev2a_c2_elabs_1LOUU54.sdf', '/opt/xchem-fragalysis-2/maxwin/BulkDock/OUTPUTS/openbind_a71ev2a_c2_elabs_1LSYIDY.sdf']

>  <name>  (356) 
P570640

>  <ref_pdb>  (356) 
A2339a

>  <subsites>  (356) 
None

>  <HIPPO Pose ID>  (356) 
570640

>  <ref_mols>  (356) 
A2339a

>  <HIPPO Compound ID>  (356) 
411794

>  <tags>  (356) 
openbind_a71ev2a_c2_elabs,syndirella_product,openbind_a71ev2a_c2_elabs_scored,BulkDock Fragalysis export,openbind_a71ev2a_c2_elabs_scored_top80percent,openbind_a71ev2a_c2_elabs_scored_6plus,openbind_a71ev2a_c2_elabs_scored_top80percent_despaghettified,syndirella_placed

>  <smina_score_min>  (356) 
-6.103

$$$$
P570641
     RDKit          3D

 25 28  0  0  0  0  0  0  0  0999 V2000
    9.4722    8.7637   23.1583 C   0  0  0  0  0  0  0  0  0  0  0  0
    9.1729   10.0330   23.7779 N   0  0  0  0  0  0  0  0  0  0  0  0
    9.8955   11.1074   23.4058 N   0  0  0  0  0  0  0  0  0  0  0  0
    9.4681   12.0822   24.2189 C   0  0  0  0  0  0  0  0  0  0  0  0
    9.7927   13.4727   24.0160 C   0  0  0  0  0  0  0  0  0  0  0  0
   10.3743   14.1729   24.7391 O   0  0  0  0  0  0  0  0  0  0  0  0
    9.0983   13.7727   22.6961 N   0  0  0  0  0  0  0  0  0  0  0  0
    8.8892   14.9757   22.0406 C   0  0  0  0  0  0  0  0  0  0  0  0
    7.4666   15.3938   22.4402 C   0  0  0  0  0  0  0  0  0  0  0  0
    6.3442   14.9802   21.7041 C   0  0  0  0  0  0  0  0  0  0  0  0
    5.0221   15.2081   22.1185 C   0  0  0  0  0  0  0  0  0  0  0  0
    4.7748   15.8112   23.3424 C   0  0  0  0  0  0  0  0  0  0  0  0
    5.8511   16.1280   24.1516 C   0  0  0  0  0  0  0  0  0  0  0  0
    5.6261   16.5720   25.3970 F   0  0  0  0  0  0  0  0  0  0  0  0
    7.1592   15.8971   23.7219 C   0  0  0  0  0  0  0  0  0  0  0  0
    8.1328   16.0137   24.6409 F   0  0  0  0  0  0  0  0  0  0  0  0
    9.4516   15.0354   20.6352 C   0  0  0  0  0  0  0  0  0  0  0  0
    9.9835   15.9414   21.6843 C   0  0  0  0  0  0  0  0  0  0  0  0
    8.3083   11.6960   24.9365 C   0  0  0  0  0  0  0  0  0  0  0  0
    7.3533   12.3632   25.7299 C   0  0  0  0  0  0  0  0  0  0  0  0
    6.3452   11.6128   26.3227 C   0  0  0  0  0  0  0  0  0  0  0  0
    5.4688   12.2184   27.1336 F   0  0  0  0  0  0  0  0  0  0  0  0
    6.2632   10.2431   26.1309 C   0  0  0  0  0  0  0  0  0  0  0  0
    7.1783    9.5942   25.2975 C   0  0  0  0  0  0  0  0  0  0  0  0
    8.1762   10.3416   24.6768 C   0  0  0  0  0  0  0  0  0  0  0  0
  1  2  1  0
  2  3  1  0
  3  4  2  0
  4  5  1  0
  5  6  2  0
  5  7  1  0
  7  8  1  0
  8  9  1  0
  9 10  2  0
 10 11  1  0
 11 12  2  0
 12 13  1  0
 13 14  1  0
 13 15  2  0
 15 16  1  0
  8 17  1  0
 17 18  1  0
  4 19  1  0
 19 20  2  0
 20 21  1  0
 21 22  1  0
 21 23  2  0
 23 24  1  0
 24 25  2  0
 25  2  1  0
 18  8  1  0
 25 19  1  0
 15  9  1  0
M  END
>  <alias>  (357) 
None

>  <rmsd(smina/fragmenstein)>  (357) 
0.382

>  <smiles>  (357) 
Cn1nc(C(=O)NC2(c3cccc(F)c3F)CC2)c2cc(F)ccc21

>  <gnina_score>  (357) 
5.99

>  <inspiration_score>  (357) 
None

>  <energy_score>  (357) 
-12.004671

>  <distance_score>  (357) 
1.050494

>  <gnina_score_min>  (357) 
6.026

>  <inchikey>  (357) 
VRWPZKHZUCRQMG-UHFFFAOYSA-N

>  <exports>  (357) 
['/opt/xchem-fragalysis-2/maxwin/BulkDock/OUTPUTS/openbind_a71ev2a_c2_elabs_1LOUU54.sdf', '/opt/xchem-fragalysis-2/maxwin/BulkDock/OUTPUTS/openbind_a71ev2a_c2_elabs_1LSYIDY.sdf']

>  <name>  (357) 
P570641

>  <ref_pdb>  (357) 
A2339a

>  <subsites>  (357) 
None

>  <HIPPO Pose ID>  (357) 
570641

>  <ref_mols>  (357) 
A2339a

>  <HIPPO Compound ID>  (357) 
411796

>  <tags>  (357) 
openbind_a71ev2a_c2_elabs,syndirella_product,openbind_a71ev2a_c2_elabs_scored,BulkDock Fragalysis export,openbind_a71ev2a_c2_elabs_scored_top80percent,openbind_a71ev2a_c2_elabs_scored_6plus,openbind_a71ev2a_c2_elabs_scored_top80percent_despaghettified,syndirella_placed

>  <smina_score_min>  (357) 
-6.962

$$$$
P570642
     RDKit          3D

 25 28  0  0  0  0  0  0  0  0999 V2000
    6.3221   16.7333   26.3623 C   0  0  0  0  0  0  0  0  0  0  0  0
    5.2407   16.6545   25.2932 C   0  0  0  0  0  0  0  0  0  0  0  0
    5.6372   16.0443   23.9682 C   0  0  0  0  0  0  0  0  0  0  0  0
    4.6215   15.5690   23.1373 C   0  0  0  0  0  0  0  0  0  0  0  0
    4.9407   14.9319   21.9494 C   0  0  0  0  0  0  0  0  0  0  0  0
    6.2792   14.8013   21.5698 C   0  0  0  0  0  0  0  0  0  0  0  0
    7.3439   15.3528   22.2915 C   0  0  0  0  0  0  0  0  0  0  0  0
    8.8085   14.9999   21.9647 C   0  0  0  0  0  0  0  0  0  0  0  0
    9.0401   13.8340   22.6800 N   0  0  0  0  0  0  0  0  0  0  0  0
    9.5348   13.6286   24.1019 C   0  0  0  0  0  0  0  0  0  0  0  0
    9.9063   14.3979   24.8904 O   0  0  0  0  0  0  0  0  0  0  0  0
    9.3425   12.2092   24.3017 C   0  0  0  0  0  0  0  0  0  0  0  0
    9.8328   11.2705   23.4761 N   0  0  0  0  0  0  0  0  0  0  0  0
    9.1586   10.1511   23.8170 N   0  0  0  0  0  0  0  0  0  0  0  0
    9.5222    8.9047   23.1813 C   0  0  0  0  0  0  0  0  0  0  0  0
    8.1481   10.3889   24.7212 C   0  0  0  0  0  0  0  0  0  0  0  0
    7.1810    9.5801   25.3118 C   0  0  0  0  0  0  0  0  0  0  0  0
    6.2337   10.1651   26.1579 C   0  0  0  0  0  0  0  0  0  0  0  0
    6.2539   11.5314   26.3886 C   0  0  0  0  0  0  0  0  0  0  0  0
    5.3485   12.0798   27.2080 F   0  0  0  0  0  0  0  0  0  0  0  0
    7.2279   12.3406   25.8215 C   0  0  0  0  0  0  0  0  0  0  0  0
    8.2159   11.7395   25.0182 C   0  0  0  0  0  0  0  0  0  0  0  0
    9.8651   16.0111   21.6280 C   0  0  0  0  0  0  0  0  0  0  0  0
    9.4368   15.0399   20.5883 C   0  0  0  0  0  0  0  0  0  0  0  0
    6.9716   15.9315   23.5261 C   0  0  0  0  0  0  0  0  0  0  0  0
  1  2  1  0
  2  3  1  0
  3  4  2  0
  4  5  1  0
  5  6  2  0
  6  7  1  0
  7  8  1  0
  8  9  1  0
  9 10  1  0
 10 11  2  0
 10 12  1  0
 12 13  2  0
 13 14  1  0
 14 15  1  0
 14 16  1  0
 16 17  2  0
 17 18  1  0
 18 19  2  0
 19 20  1  0
 19 21  1  0
 21 22  2  0
  8 23  1  0
 23 24  1  0
  7 25  2  0
 25  3  1  0
 24  8  1  0
 22 12  1  0
 22 16  1  0
M  END
>  <alias>  (358) 
None

>  <rmsd(smina/fragmenstein)>  (358) 
0.598

>  <smiles>  (358) 
CCc1cccc(C2(NC(=O)c3nn(C)c4ccc(F)cc34)CC2)c1

>  <gnina_score>  (358) 
5.776

>  <inspiration_score>  (358) 
None

>  <energy_score>  (358) 
-20.860824

>  <distance_score>  (358) 
1.093041

>  <gnina_score_min>  (358) 
5.882

>  <inchikey>  (358) 
MFICXIXNJJEAKJ-UHFFFAOYSA-N

>  <exports>  (358) 
['/opt/xchem-fragalysis-2/maxwin/BulkDock/OUTPUTS/openbind_a71ev2a_c2_elabs_1LOUU54.sdf', '/opt/xchem-fragalysis-2/maxwin/BulkDock/OUTPUTS/openbind_a71ev2a_c2_elabs_1LSYIDY.sdf']

>  <name>  (358) 
P570642

>  <ref_pdb>  (358) 
A2339a

>  <subsites>  (358) 
None

>  <HIPPO Pose ID>  (358) 
570642

>  <ref_mols>  (358) 
A2339a

>  <HIPPO Compound ID>  (358) 
411801

>  <tags>  (358) 
openbind_a71ev2a_c2_elabs,syndirella_product,openbind_a71ev2a_c2_elabs_scored,BulkDock Fragalysis export,openbind_a71ev2a_c2_elabs_scored_top80percent,openbind_a71ev2a_c2_elabs_scored_top80percent_despaghettified,syndirella_placed

>  <smina_score_min>  (358) 
-6.824

$$$$
P570643
     RDKit          3D

 25 28  0  0  0  0  0  0  0  0999 V2000
    8.8139    8.7714   23.7308 C   0  0  0  0  0  0  0  0  0  0  0  0
    8.4022   10.0603   24.2359 N   0  0  0  0  0  0  0  0  0  0  0  0
    9.1207   11.1246   23.8693 N   0  0  0  0  0  0  0  0  0  0  0  0
    8.6557   12.1198   24.6520 C   0  0  0  0  0  0  0  0  0  0  0  0
    9.3244   13.4056   24.6518 C   0  0  0  0  0  0  0  0  0  0  0  0
    8.9582   14.3620   25.2003 O   0  0  0  0  0  0  0  0  0  0  0  0
   10.5009   13.1967   23.7109 N   0  0  0  0  0  0  0  0  0  0  0  0
   11.4016   14.1054   23.1786 C   0  0  2  0  0  0  0  0  0  0  0  0
   12.7863   13.7695   23.5201 C   0  0  0  0  0  0  0  0  0  0  0  0
   10.9864   15.5096   22.8769 C   0  0  0  0  0  0  0  0  0  0  0  0
   11.0289   14.5220   21.7677 C   0  0  0  0  0  0  0  0  0  0  0  0
    9.6857   14.0789   21.2688 C   0  0  0  0  0  0  0  0  0  0  0  0
    8.9226   15.1735   20.6278 C   0  0  0  0  0  0  0  0  0  0  0  0
    9.9822   16.0778   19.5582 S   0  0  0  0  0  0  0  0  0  0  0  0
    9.4092   16.0856   18.2376 O   0  0  0  0  0  0  0  0  0  0  0  0
   10.2240   17.3198   20.2542 O   0  0  0  0  0  0  0  0  0  0  0  0
   11.4389   15.0822   19.3836 C   0  0  0  0  0  0  0  0  0  0  0  0
   12.0740   14.7477   20.7061 C   0  0  0  0  0  0  0  0  0  0  0  0
    7.5362   11.7423   25.3829 C   0  0  0  0  0  0  0  0  0  0  0  0
    6.6770   12.4046   26.2674 C   0  0  0  0  0  0  0  0  0  0  0  0
    5.7289   11.6488   26.9292 C   0  0  0  0  0  0  0  0  0  0  0  0
    4.9317   12.2516   27.8148 F   0  0  0  0  0  0  0  0  0  0  0  0
    5.6105   10.2863   26.7149 C   0  0  0  0  0  0  0  0  0  0  0  0
    6.4310    9.6403   25.7888 C   0  0  0  0  0  0  0  0  0  0  0  0
    7.4117   10.3789   25.1366 C   0  0  0  0  0  0  0  0  0  0  0  0
  1  2  1  0
  2  3  1  0
  3  4  2  0
  4  5  1  0
  5  6  2  0
  5  7  1  0
  8  7  1  0
  8  9  1  6
  8 10  1  0
 10 11  1  0
 11 12  1  0
 12 13  1  0
 13 14  1  0
 14 15  2  0
 14 16  2  0
 14 17  1  0
 17 18  1  0
  4 19  1  0
 19 20  2  0
 20 21  1  0
 21 22  1  0
 21 23  2  0
 23 24  1  0
 24 25  2  0
 25  2  1  0
 11  8  1  0
 25 19  1  0
 18 11  1  0
M  END
>  <alias>  (359) 
None

>  <rmsd(smina/fragmenstein)>  (359) 
0.69

>  <smiles>  (359) 
Cn1nc(C(=O)N[C@]2(C)CC23CCS(=O)(=O)CC3)c2cc(F)ccc21

>  <gnina_score>  (359) 
6.08

>  <inspiration_score>  (359) 
None

>  <energy_score>  (359) 
-32.887801

>  <distance_score>  (359) 
1.320168

>  <gnina_score_min>  (359) 
5.999

>  <inchikey>  (359) 
JRPSTQINUIHGNL-MRXNPFEDSA-N

>  <exports>  (359) 
['/opt/xchem-fragalysis-2/maxwin/BulkDock/OUTPUTS/openbind_a71ev2a_c2_elabs_1LOUU54.sdf', '/opt/xchem-fragalysis-2/maxwin/BulkDock/OUTPUTS/openbind_a71ev2a_c2_elabs_1LSYIDY.sdf']

>  <name>  (359) 
P570643

>  <ref_pdb>  (359) 
A2339a

>  <subsites>  (359) 
None

>  <HIPPO Pose ID>  (359) 
570643

>  <ref_mols>  (359) 
A2339a

>  <HIPPO Compound ID>  (359) 
411805

>  <tags>  (359) 
openbind_a71ev2a_c2_elabs,syndirella_product,openbind_a71ev2a_c2_elabs_scored,BulkDock Fragalysis export,openbind_a71ev2a_c2_elabs_scored_top80percent,openbind_a71ev2a_c2_elabs_scored_top80percent_despaghettified,syndirella_placed

>  <smina_score_min>  (359) 
-7.049

$$$$
P570653
     RDKit          3D

 25 28  0  0  0  0  0  0  0  0999 V2000
    9.3316    8.6900   23.4612 C   0  0  0  0  0  0  0  0  0  0  0  0
    8.7760    9.9845   23.7736 N   0  0  0  0  0  0  0  0  0  0  0  0
    9.2535   11.0518   23.1110 N   0  0  0  0  0  0  0  0  0  0  0  0
    8.4376   12.0478   23.4933 C   0  0  0  0  0  0  0  0  0  0  0  0
    8.5643   13.3955   22.9832 C   0  0  0  0  0  0  0  0  0  0  0  0
    7.7269   14.1915   23.0918 O   0  0  0  0  0  0  0  0  0  0  0  0
    9.9726   13.5159   22.4272 N   0  0  0  0  0  0  0  0  0  0  0  0
   10.6736   14.6241   21.9843 C   0  0  0  0  0  0  0  0  0  0  0  0
   11.5000   15.1274   23.1575 C   0  0  0  0  0  0  0  0  0  0  0  0
   11.3374   14.3997   24.5501 C   0  0  0  0  0  0  0  0  0  0  0  0
   10.5670   15.0679   25.6848 C   0  0  0  0  0  0  0  0  0  0  0  0
   11.1284   15.2185   26.9637 C   0  0  0  0  0  0  0  0  0  0  0  0
   10.4100   15.7760   28.0289 C   0  0  0  0  0  0  0  0  0  0  0  0
    9.0935   16.1760   27.8474 C   0  0  0  0  0  0  0  0  0  0  0  0
    8.5031   16.0146   26.6023 C   0  0  0  0  0  0  0  0  0  0  0  0
    9.2361   15.4663   25.5423 C   0  0  0  0  0  0  0  0  0  0  0  0
   10.0688   15.6234   21.0302 C   0  0  0  0  0  0  0  0  0  0  0  0
   11.2310   14.7896   20.5953 C   0  0  0  0  0  0  0  0  0  0  0  0
    7.6437   11.6886   24.5974 C   0  0  0  0  0  0  0  0  0  0  0  0
    6.7946   12.3722   25.4868 C   0  0  0  0  0  0  0  0  0  0  0  0
    6.0700   11.6293   26.4065 C   0  0  0  0  0  0  0  0  0  0  0  0
    5.2763   12.2601   27.2798 F   0  0  0  0  0  0  0  0  0  0  0  0
    6.1438   10.2472   26.4269 C   0  0  0  0  0  0  0  0  0  0  0  0
    7.0109    9.5766   25.5602 C   0  0  0  0  0  0  0  0  0  0  0  0
    7.8023   10.3153   24.6884 C   0  0  0  0  0  0  0  0  0  0  0  0
  1  2  1  0
  2  3  1  0
  3  4  2  0
  4  5  1  0
  5  6  2  0
  5  7  1  0
  7  8  1  0
  8  9  1  0
  9 10  1  0
 10 11  1  0
 11 12  2  0
 12 13  1  0
 13 14  2  0
 14 15  1  0
 15 16  2  0
  8 17  1  0
 17 18  1  0
  4 19  1  0
 19 20  2  0
 20 21  1  0
 21 22  1  0
 21 23  2  0
 23 24  1  0
 24 25  2  0
 25  2  1  0
 18  8  1  0
 25 19  1  0
 16 11  1  0
M  END
>  <alias>  (360) 
None

>  <rmsd(smina/fragmenstein)>  (360) 
0.583

>  <smiles>  (360) 
Cn1nc(C(=O)NC2(CCc3ccccc3)CC2)c2cc(F)ccc21

>  <gnina_score>  (360) 
6.16

>  <inspiration_score>  (360) 
None

>  <energy_score>  (360) 
-12.162443

>  <distance_score>  (360) 
0.831543

>  <gnina_score_min>  (360) 
6.094

>  <inchikey>  (360) 
PNQTWRXRMZVFSJ-UHFFFAOYSA-N

>  <exports>  (360) 
['/opt/xchem-fragalysis-2/maxwin/BulkDock/OUTPUTS/openbind_a71ev2a_c2_elabs_1LOUU54.sdf', '/opt/xchem-fragalysis-2/maxwin/BulkDock/OUTPUTS/openbind_a71ev2a_c2_elabs_1LSYIDY.sdf']

>  <name>  (360) 
P570653

>  <ref_pdb>  (360) 
A2339a

>  <subsites>  (360) 
None

>  <HIPPO Pose ID>  (360) 
570653

>  <ref_mols>  (360) 
A2339a

>  <HIPPO Compound ID>  (360) 
411840

>  <tags>  (360) 
openbind_a71ev2a_c2_elabs,syndirella_product,openbind_a71ev2a_c2_elabs_scored,BulkDock Fragalysis export,openbind_a71ev2a_c2_elabs_scored_top80percent,openbind_a71ev2a_c2_elabs_scored_6plus,openbind_a71ev2a_c2_elabs_scored_top80percent_despaghettified,syndirella_placed

>  <smina_score_min>  (360) 
-6.704

$$$$
P570656
     RDKit          3D

 25 28  0  0  0  0  0  0  0  0999 V2000
    9.6281    8.7795   23.2205 C   0  0  0  0  0  0  0  0  0  0  0  0
    9.1489   10.1117   23.4975 N   0  0  0  0  0  0  0  0  0  0  0  0
    9.6502   11.1360   22.7805 N   0  0  0  0  0  0  0  0  0  0  0  0
    8.8579   12.1732   23.1036 C   0  0  0  0  0  0  0  0  0  0  0  0
    8.8706   13.4585   22.3690 C   0  0  0  0  0  0  0  0  0  0  0  0
    8.0122   14.2297   22.5589 O   0  0  0  0  0  0  0  0  0  0  0  0
   10.1559   13.5766   21.5077 N   0  0  0  0  0  0  0  0  0  0  0  0
   10.6948   14.6956   20.7840 C   0  0  0  0  0  0  0  0  0  0  0  0
   11.5784   15.5540   21.6883 C   0  0  2  0  0  0  0  0  0  0  0  0
   12.9447   15.5200   21.3048 O   0  0  0  0  0  0  0  0  0  0  0  0
   11.4236   15.0620   23.1051 C   0  0  0  0  0  0  0  0  0  0  0  0
   10.2760   15.4150   23.8090 C   0  0  0  0  0  0  0  0  0  0  0  0
   10.0697   15.0980   25.1334 C   0  0  0  0  0  0  0  0  0  0  0  0
   11.0449   14.3698   25.7521 C   0  0  0  0  0  0  0  0  0  0  0  0
   12.0659   13.7749   24.9941 C   0  0  0  0  0  0  0  0  0  0  0  0
   12.2507   14.1153   23.6711 C   0  0  0  0  0  0  0  0  0  0  0  0
    9.8074   15.4407   19.8351 C   0  0  0  0  0  0  0  0  0  0  0  0
   11.0106   14.7368   19.3120 C   0  0  0  0  0  0  0  0  0  0  0  0
    8.0588   11.8665   24.2466 C   0  0  0  0  0  0  0  0  0  0  0  0
    7.1820   12.5751   25.0936 C   0  0  0  0  0  0  0  0  0  0  0  0
    6.4388   11.8643   26.0343 C   0  0  0  0  0  0  0  0  0  0  0  0
    5.6295   12.5234   26.8748 F   0  0  0  0  0  0  0  0  0  0  0  0
    6.5041   10.4817   26.1108 C   0  0  0  0  0  0  0  0  0  0  0  0
    7.3825    9.7717   25.2904 C   0  0  0  0  0  0  0  0  0  0  0  0
    8.1884   10.4907   24.4022 C   0  0  0  0  0  0  0  0  0  0  0  0
  1  2  1  0
  2  3  1  0
  3  4  2  0
  4  5  1  0
  5  6  2  0
  5  7  1  0
  7  8  1  0
  8  9  1  0
  9 10  1  6
  9 11  1  0
 11 12  2  0
 12 13  1  0
 13 14  2  0
 14 15  1  0
 15 16  2  0
  8 17  1  0
 17 18  1  0
  4 19  1  0
 19 20  2  0
 20 21  1  0
 21 22  1  0
 21 23  2  0
 23 24  1  0
 24 25  2  0
 25  2  1  0
 18  8  1  0
 25 19  1  0
 16 11  1  0
M  END
>  <alias>  (361) 
None

>  <rmsd(smina/fragmenstein)>  (361) 
0.739

>  <smiles>  (361) 
Cn1nc(C(=O)NC2([C@H](O)c3ccccc3)CC2)c2cc(F)ccc21

>  <gnina_score>  (361) 
6.17

>  <inspiration_score>  (361) 
None

>  <energy_score>  (361) 
-6.066965

>  <distance_score>  (361) 
1.014037

>  <gnina_score_min>  (361) 
6.142

>  <inchikey>  (361) 
HKZNWSYLQUFVBH-QGZVFWFLSA-N

>  <exports>  (361) 
['/opt/xchem-fragalysis-2/maxwin/BulkDock/OUTPUTS/openbind_a71ev2a_c2_elabs_1LOUU54.sdf', '/opt/xchem-fragalysis-2/maxwin/BulkDock/OUTPUTS/openbind_a71ev2a_c2_elabs_1LSYIDY.sdf']

>  <name>  (361) 
P570656

>  <ref_pdb>  (361) 
A2339a

>  <subsites>  (361) 
None

>  <HIPPO Pose ID>  (361) 
570656

>  <ref_mols>  (361) 
A2339a

>  <HIPPO Compound ID>  (361) 
411862

>  <tags>  (361) 
openbind_a71ev2a_c2_elabs,syndirella_product,openbind_a71ev2a_c2_elabs_scored,BulkDock Fragalysis export,openbind_a71ev2a_c2_elabs_scored_top80percent,openbind_a71ev2a_c2_elabs_scored_6plus,openbind_a71ev2a_c2_elabs_scored_top80percent_despaghettified,syndirella_placed

>  <smina_score_min>  (361) 
-7.107

$$$$
P570658
     RDKit          3D

 25 28  0  0  0  0  0  0  0  0999 V2000
    3.1717   15.0077   23.2322 C   0  0  0  0  0  0  0  0  0  0  0  0
    4.6158   15.1877   22.8643 C   0  0  0  0  0  0  0  0  0  0  0  0
    5.3974   16.0821   23.5891 C   0  0  0  0  0  0  0  0  0  0  0  0
    6.7193   16.3496   23.2081 C   0  0  0  0  0  0  0  0  0  0  0  0
    7.3587   15.7106   22.1337 C   0  0  0  0  0  0  0  0  0  0  0  0
    8.7537   16.1601   21.6028 C   0  0  2  0  0  0  0  0  0  0  0  0
    9.5737   15.4571   20.5426 C   0  0  0  0  0  0  0  0  0  0  0  0
    9.9945   15.3499   21.9671 C   0  0  2  0  0  0  0  0  0  0  0  0
    9.7848   14.1394   22.6376 N   0  0  0  0  0  0  0  0  0  0  0  0
    9.3743   13.8627   24.0841 C   0  0  0  0  0  0  0  0  0  0  0  0
    9.2178   14.5928   24.9778 O   0  0  0  0  0  0  0  0  0  0  0  0
    9.0815   12.4332   24.1833 C   0  0  0  0  0  0  0  0  0  0  0  0
    9.6571   11.5012   23.3994 N   0  0  0  0  0  0  0  0  0  0  0  0
    9.0649   10.3467   23.7767 N   0  0  0  0  0  0  0  0  0  0  0  0
    9.5268    9.1011   23.2018 C   0  0  0  0  0  0  0  0  0  0  0  0
    8.0579   10.5310   24.6955 C   0  0  0  0  0  0  0  0  0  0  0  0
    7.1730    9.6567   25.3266 C   0  0  0  0  0  0  0  0  0  0  0  0
    6.2237   10.1882   26.2048 C   0  0  0  0  0  0  0  0  0  0  0  0
    6.1707   11.5552   26.4359 C   0  0  0  0  0  0  0  0  0  0  0  0
    5.2691   12.0465   27.2946 F   0  0  0  0  0  0  0  0  0  0  0  0
    7.0586   12.4269   25.8217 C   0  0  0  0  0  0  0  0  0  0  0  0
    8.0309   11.8932   24.9572 C   0  0  0  0  0  0  0  0  0  0  0  0
    6.5847   14.7221   21.5200 C   0  0  0  0  0  0  0  0  0  0  0  0
    5.2164   14.4973   21.8041 C   0  0  0  0  0  0  0  0  0  0  0  0
    4.4163   13.6252   20.8731 C   0  0  0  0  0  0  0  0  0  0  0  0
  1  2  1  0
  2  3  2  0
  3  4  1  0
  4  5  2  0
  6  5  1  1
  6  7  1  0
  7  8  1  0
  8  9  1  1
  9 10  1  0
 10 11  2  0
 10 12  1  0
 12 13  2  0
 13 14  1  0
 14 15  1  0
 14 16  1  0
 16 17  2  0
 17 18  1  0
 18 19  2  0
 19 20  1  0
 19 21  1  0
 21 22  2  0
  5 23  1  0
 23 24  2  0
 24 25  1  0
 24  2  1  0
  8  6  1  0
 22 12  1  0
 22 16  1  0
M  END
>  <alias>  (362) 
None

>  <rmsd(smina/fragmenstein)>  (362) 
0.907

>  <smiles>  (362) 
Cc1ccc([C@@H]2C[C@@H]2NC(=O)c2nn(C)c3ccc(F)cc23)cc1C

>  <gnina_score>  (362) 
5.926

>  <inspiration_score>  (362) 
None

>  <energy_score>  (362) 
-25.611482

>  <distance_score>  (362) 
1.072084

>  <gnina_score_min>  (362) 
6.001

>  <inchikey>  (362) 
ZGXGUHVJPURKJM-RDJZCZTQSA-N

>  <exports>  (362) 
['/opt/xchem-fragalysis-2/maxwin/BulkDock/OUTPUTS/openbind_a71ev2a_c2_elabs_1LOUU54.sdf', '/opt/xchem-fragalysis-2/maxwin/BulkDock/OUTPUTS/openbind_a71ev2a_c2_elabs_1LSYIDY.sdf']

>  <name>  (362) 
P570658

>  <ref_pdb>  (362) 
A2339a

>  <subsites>  (362) 
None

>  <HIPPO Pose ID>  (362) 
570658

>  <ref_mols>  (362) 
A2339a

>  <HIPPO Compound ID>  (362) 
411867

>  <tags>  (362) 
openbind_a71ev2a_c2_elabs,syndirella_product,openbind_a71ev2a_c2_elabs_scored,BulkDock Fragalysis export,openbind_a71ev2a_c2_elabs_scored_top80percent,openbind_a71ev2a_c2_elabs_scored_6plus,openbind_a71ev2a_c2_elabs_scored_top80percent_despaghettified,syndirella_placed

>  <smina_score_min>  (362) 
-7.559

$$$$
P570661
     RDKit          3D

 25 28  0  0  0  0  0  0  0  0999 V2000
    8.8968    8.7148   23.6860 C   0  0  0  0  0  0  0  0  0  0  0  0
    8.4030   10.0067   24.0971 N   0  0  0  0  0  0  0  0  0  0  0  0
    8.9676   11.0845   23.5463 N   0  0  0  0  0  0  0  0  0  0  0  0
    8.3532   12.1156   24.1538 C   0  0  0  0  0  0  0  0  0  0  0  0
    8.7862   13.4646   23.9107 C   0  0  0  0  0  0  0  0  0  0  0  0
    8.2680   14.4125   24.3352 O   0  0  0  0  0  0  0  0  0  0  0  0
   10.0624   13.3179   23.1039 N   0  0  0  0  0  0  0  0  0  0  0  0
   10.9941   14.2495   22.7358 C   0  0  0  0  0  0  0  0  0  0  0  0
   10.8546   14.7718   21.3713 C   0  0  0  0  0  0  0  0  0  0  0  0
    9.9783   15.8215   21.0639 C   0  0  0  0  0  0  0  0  0  0  0  0
   10.0251   16.3980   19.8162 C   0  0  0  0  0  0  0  0  0  0  0  0
   10.8566   15.8295   18.8710 C   0  0  0  0  0  0  0  0  0  0  0  0
   11.0701   16.4270   17.7127 F   0  0  0  0  0  0  0  0  0  0  0  0
   11.6214   14.7331   19.1297 C   0  0  0  0  0  0  0  0  0  0  0  0
   12.3329   14.1804   18.1601 F   0  0  0  0  0  0  0  0  0  0  0  0
   11.6895   14.2498   20.3934 C   0  0  0  0  0  0  0  0  0  0  0  0
   12.3613   14.2134   23.3330 C   0  0  0  0  0  0  0  0  0  0  0  0
   11.3431   15.2147   23.7995 C   0  0  0  0  0  0  0  0  0  0  0  0
    7.4172   11.7146   25.0999 C   0  0  0  0  0  0  0  0  0  0  0  0
    6.5885   12.3835   26.0113 C   0  0  0  0  0  0  0  0  0  0  0  0
    5.7715   11.6206   26.8236 C   0  0  0  0  0  0  0  0  0  0  0  0
    4.9997   12.2364   27.7236 F   0  0  0  0  0  0  0  0  0  0  0  0
    5.7440   10.2411   26.7239 C   0  0  0  0  0  0  0  0  0  0  0  0
    6.5641    9.5855   25.8037 C   0  0  0  0  0  0  0  0  0  0  0  0
    7.4368   10.3299   25.0226 C   0  0  0  0  0  0  0  0  0  0  0  0
  1  2  1  0
  2  3  1  0
  3  4  2  0
  4  5  1  0
  5  6  2  0
  5  7  1  0
  7  8  1  0
  8  9  1  0
  9 10  2  0
 10 11  1  0
 11 12  2  0
 12 13  1  0
 12 14  1  0
 14 15  1  0
 14 16  2  0
  8 17  1  0
 17 18  1  0
  4 19  1  0
 19 20  2  0
 20 21  1  0
 21 22  1  0
 21 23  2  0
 23 24  1  0
 24 25  2  0
 25  2  1  0
 18  8  1  0
 25 19  1  0
 16  9  1  0
M  END
>  <alias>  (363) 
None

>  <rmsd(smina/fragmenstein)>  (363) 
2.3

>  <smiles>  (363) 
Cn1nc(C(=O)NC2(c3ccc(F)c(F)c3)CC2)c2cc(F)ccc21

>  <gnina_score>  (363) 
5.776

>  <inspiration_score>  (363) 
None

>  <energy_score>  (363) 
-4.902253

>  <distance_score>  (363) 
1.437503

>  <gnina_score_min>  (363) 
5.334

>  <inchikey>  (363) 
HDPARPFVNSTVIR-UHFFFAOYSA-N

>  <exports>  (363) 
['/opt/xchem-fragalysis-2/maxwin/BulkDock/OUTPUTS/openbind_a71ev2a_c2_elabs_1LOUU54.sdf', '/opt/xchem-fragalysis-2/maxwin/BulkDock/OUTPUTS/openbind_a71ev2a_c2_elabs_1LSYIDY.sdf']

>  <name>  (363) 
P570661

>  <ref_pdb>  (363) 
A2339a

>  <subsites>  (363) 
None

>  <HIPPO Pose ID>  (363) 
570661

>  <ref_mols>  (363) 
A2339a

>  <HIPPO Compound ID>  (363) 
411882

>  <tags>  (363) 
openbind_a71ev2a_c2_elabs,syndirella_product,openbind_a71ev2a_c2_elabs_scored,BulkDock Fragalysis export,openbind_a71ev2a_c2_elabs_scored_top80percent,openbind_a71ev2a_c2_elabs_scored_top80percent_despaghettified,syndirella_placed

>  <smina_score_min>  (363) 
-7.532

$$$$
P570662
     RDKit          3D

 25 28  0  0  0  0  0  0  0  0999 V2000
   11.5478   14.9084   18.5048 C   0  0  0  0  0  0  0  0  0  0  0  0
   10.9867   16.1804   18.7423 O   0  0  0  0  0  0  0  0  0  0  0  0
   10.1930   16.3761   19.8260 C   0  0  0  0  0  0  0  0  0  0  0  0
    9.5901   17.6227   19.8642 C   0  0  0  0  0  0  0  0  0  0  0  0
    8.6477   17.9495   20.8089 C   0  0  0  0  0  0  0  0  0  0  0  0
    8.1778   16.9519   21.6409 C   0  0  0  0  0  0  0  0  0  0  0  0
    8.8389   15.7501   21.6851 C   0  0  0  0  0  0  0  0  0  0  0  0
    9.9606   15.5201   20.8784 C   0  0  0  0  0  0  0  0  0  0  0  0
   10.8104   14.3824   21.2286 C   0  0  1  0  0  0  0  0  0  0  0  0
   12.2547   14.3157   21.5440 C   0  0  0  0  0  0  0  0  0  0  0  0
   11.3190   14.3811   22.6817 C   0  0  2  0  0  0  0  0  0  0  0  0
   10.5797   13.3832   23.3018 N   0  0  0  0  0  0  0  0  0  0  0  0
    9.5559   13.4630   24.4253 C   0  0  0  0  0  0  0  0  0  0  0  0
    9.2159   14.3661   25.0730 O   0  0  0  0  0  0  0  0  0  0  0  0
    8.9547   12.1402   24.4973 C   0  0  0  0  0  0  0  0  0  0  0  0
    9.4233   11.1274   23.7420 N   0  0  0  0  0  0  0  0  0  0  0  0
    8.6750   10.0755   24.1048 N   0  0  0  0  0  0  0  0  0  0  0  0
    9.0442    8.7715   23.6049 C   0  0  0  0  0  0  0  0  0  0  0  0
    7.6774   10.4107   24.9915 C   0  0  0  0  0  0  0  0  0  0  0  0
    6.6841    9.6796   25.6381 C   0  0  0  0  0  0  0  0  0  0  0  0
    5.8276   10.3426   26.5182 C   0  0  0  0  0  0  0  0  0  0  0  0
    5.9382   11.7098   26.7060 C   0  0  0  0  0  0  0  0  0  0  0  0
    5.1111   12.3269   27.5559 F   0  0  0  0  0  0  0  0  0  0  0  0
    6.9143   12.4514   26.0616 C   0  0  0  0  0  0  0  0  0  0  0  0
    7.8115   11.7750   25.2201 C   0  0  0  0  0  0  0  0  0  0  0  0
  1  2  1  0
  2  3  1  0
  3  4  2  0
  4  5  1  0
  5  6  2  0
  6  7  1  0
  7  8  2  0
  9  8  1  6
  9 10  1  0
 10 11  1  0
 11 12  1  1
 12 13  1  0
 13 14  2  0
 13 15  1  0
 15 16  2  0
 16 17  1  0
 17 18  1  0
 17 19  1  0
 19 20  2  0
 20 21  1  0
 21 22  2  0
 22 23  1  0
 22 24  1  0
 24 25  2  0
  8  3  1  0
 11  9  1  0
 25 15  1  0
 25 19  1  0
M  END
>  <alias>  (364) 
None

>  <rmsd(smina/fragmenstein)>  (364) 
0.396

>  <smiles>  (364) 
COc1ccccc1[C@H]1C[C@@H]1NC(=O)c1nn(C)c2ccc(F)cc12

>  <gnina_score>  (364) 
6.115

>  <inspiration_score>  (364) 
None

>  <energy_score>  (364) 
-6.660045

>  <distance_score>  (364) 
0.905227

>  <gnina_score_min>  (364) 
6.035

>  <inchikey>  (364) 
WBKMLEDLFVJARH-HIFRSBDPSA-N

>  <exports>  (364) 
['/opt/xchem-fragalysis-2/maxwin/BulkDock/OUTPUTS/openbind_a71ev2a_c2_elabs_1LOUU54.sdf', '/opt/xchem-fragalysis-2/maxwin/BulkDock/OUTPUTS/openbind_a71ev2a_c2_elabs_1LSYIDY.sdf']

>  <name>  (364) 
P570662

>  <ref_pdb>  (364) 
A2339a

>  <subsites>  (364) 
None

>  <HIPPO Pose ID>  (364) 
570662

>  <ref_mols>  (364) 
A2339a

>  <HIPPO Compound ID>  (364) 
411883

>  <tags>  (364) 
openbind_a71ev2a_c2_elabs,syndirella_product,openbind_a71ev2a_c2_elabs_scored,BulkDock Fragalysis export,openbind_a71ev2a_c2_elabs_scored_top80percent,openbind_a71ev2a_c2_elabs_scored_6plus,openbind_a71ev2a_c2_elabs_scored_top80percent_despaghettified,syndirella_placed

>  <smina_score_min>  (364) 
-5.468

$$$$
P570665
     RDKit          3D

 25 28  0  0  0  0  0  0  0  0999 V2000
    9.0655    8.4263   23.1601 C   0  0  0  0  0  0  0  0  0  0  0  0
    8.9098    9.7532   23.6902 N   0  0  0  0  0  0  0  0  0  0  0  0
    9.7652   10.6837   23.2549 N   0  0  0  0  0  0  0  0  0  0  0  0
    9.5493   11.7132   24.0775 C   0  0  0  0  0  0  0  0  0  0  0  0
   10.5019   12.8057   24.1529 C   0  0  0  0  0  0  0  0  0  0  0  0
   10.5842   13.4739   25.1042 O   0  0  0  0  0  0  0  0  0  0  0  0
   11.2041   12.9174   22.7967 N   0  0  0  0  0  0  0  0  0  0  0  0
   12.0646   13.9029   22.2953 C   0  0  1  0  0  0  0  0  0  0  0  0
   12.0515   14.2286   20.8437 C   0  0  0  0  0  0  0  0  0  0  0  0
   11.3131   15.1369   21.7805 C   0  0  2  0  0  0  0  0  0  0  0  0
   11.8735   16.4758   21.7420 C   0  0  0  0  0  0  0  0  0  0  0  0
    9.8137   15.1341   22.0740 C   0  0  0  0  0  0  0  0  0  0  0  0
    9.3108   15.2748   23.3783 C   0  0  0  0  0  0  0  0  0  0  0  0
    7.9586   15.1555   23.6994 C   0  0  0  0  0  0  0  0  0  0  0  0
    7.0677   14.8209   22.7076 C   0  0  0  0  0  0  0  0  0  0  0  0
    7.5326   14.7470   21.4006 C   0  0  0  0  0  0  0  0  0  0  0  0
    8.8720   15.0052   21.0793 C   0  0  0  0  0  0  0  0  0  0  0  0
    9.4412   15.3132   19.4858 Cl  0  0  0  0  0  0  0  0  0  0  0  0
    8.3442   11.5643   24.8044 C   0  0  0  0  0  0  0  0  0  0  0  0
    7.5640   12.3613   25.6655 C   0  0  0  0  0  0  0  0  0  0  0  0
    6.4826   11.7924   26.3277 C   0  0  0  0  0  0  0  0  0  0  0  0
    5.7594   12.5368   27.1740 F   0  0  0  0  0  0  0  0  0  0  0  0
    6.1917   10.4500   26.1874 C   0  0  0  0  0  0  0  0  0  0  0  0
    6.9580    9.6550   25.3336 C   0  0  0  0  0  0  0  0  0  0  0  0
    8.0062   10.2308   24.6126 C   0  0  0  0  0  0  0  0  0  0  0  0
  1  2  1  0
  2  3  1  0
  3  4  2  0
  4  5  1  0
  5  6  2  0
  5  7  1  0
  8  7  1  6
  8  9  1  0
  9 10  1  0
 10 11  1  1
 10 12  1  0
 12 13  2  0
 13 14  1  0
 14 15  2  0
 15 16  1  0
 16 17  2  0
 17 18  1  0
  4 19  1  0
 19 20  2  0
 20 21  1  0
 21 22  1  0
 21 23  2  0
 23 24  1  0
 24 25  2  0
 25  2  1  0
 10  8  1  0
 17 12  1  0
 25 19  1  0
M  END
>  <alias>  (365) 
None

>  <rmsd(smina/fragmenstein)>  (365) 
0.38

>  <smiles>  (365) 
Cn1nc(C(=O)N[C@H]2C[C@@]2(C)c2ccccc2Cl)c2cc(F)ccc21

>  <gnina_score>  (365) 
6.407

>  <inspiration_score>  (365) 
None

>  <energy_score>  (365) 
-43.407989

>  <distance_score>  (365) 
0.86566

>  <gnina_score_min>  (365) 
6.371

>  <inchikey>  (365) 
LAQIVOONYDPZSP-LPHOPBHVSA-N

>  <exports>  (365) 
['/opt/xchem-fragalysis-2/maxwin/BulkDock/OUTPUTS/openbind_a71ev2a_c2_elabs_1LOUU54.sdf', '/opt/xchem-fragalysis-2/maxwin/BulkDock/OUTPUTS/openbind_a71ev2a_c2_elabs_1LSYIDY.sdf']

>  <name>  (365) 
P570665

>  <ref_pdb>  (365) 
A2339a

>  <subsites>  (365) 
None

>  <HIPPO Pose ID>  (365) 
570665

>  <ref_mols>  (365) 
A2339a

>  <HIPPO Compound ID>  (365) 
411887

>  <tags>  (365) 
openbind_a71ev2a_c2_elabs,syndirella_product,openbind_a71ev2a_c2_elabs_scored,BulkDock Fragalysis export,openbind_a71ev2a_c2_elabs_scored_top80percent,openbind_a71ev2a_c2_elabs_scored_6plus,openbind_a71ev2a_c2_elabs_scored_top80percent_despaghettified,syndirella_placed

>  <smina_score_min>  (365) 
-5.571

$$$$
P570666
     RDKit          3D

 25 27  0  0  0  0  0  0  0  0999 V2000
    9.0997    8.7832   23.2204 C   0  0  0  0  0  0  0  0  0  0  0  0
    8.8310   10.0640   23.8315 N   0  0  0  0  0  0  0  0  0  0  0  0
    9.6277   11.0949   23.5097 N   0  0  0  0  0  0  0  0  0  0  0  0
    9.2155   12.0858   24.3198 C   0  0  0  0  0  0  0  0  0  0  0  0
   10.0335   13.2790   24.5085 C   0  0  0  0  0  0  0  0  0  0  0  0
    9.7567   14.1090   25.2740 O   0  0  0  0  0  0  0  0  0  0  0  0
   11.1873   13.1957   23.5121 N   0  0  0  0  0  0  0  0  0  0  0  0
   12.1875   14.1462   23.1767 C   0  0  0  0  0  0  0  0  0  0  0  0
   12.1050   14.6209   21.7208 C   0  0  0  0  0  0  0  0  0  0  0  0
   10.8812   15.3117   21.2582 N   0  0  0  0  0  0  0  0  0  0  0  0
    9.7219   15.2705   22.1750 C   0  0  0  0  0  0  0  0  0  0  0  0
    8.3790   15.8839   21.7636 C   0  0  0  0  0  0  0  0  0  0  0  0
    8.4996   17.0796   21.1665 F   0  0  0  0  0  0  0  0  0  0  0  0
    7.5801   16.0193   22.8515 F   0  0  0  0  0  0  0  0  0  0  0  0
    7.7300   15.0279   20.9340 F   0  0  0  0  0  0  0  0  0  0  0  0
   10.4813   14.7821   19.9660 C   0  0  0  0  0  0  0  0  0  0  0  0
   11.3295   14.9440   18.7504 C   0  0  0  0  0  0  0  0  0  0  0  0
   10.1044   15.7798   18.9343 C   0  0  0  0  0  0  0  0  0  0  0  0
    8.0177   11.7662   24.9823 C   0  0  0  0  0  0  0  0  0  0  0  0
    7.1372   12.4466   25.8422 C   0  0  0  0  0  0  0  0  0  0  0  0
    6.1511   11.7149   26.4889 C   0  0  0  0  0  0  0  0  0  0  0  0
    5.3397   12.3344   27.3541 F   0  0  0  0  0  0  0  0  0  0  0  0
    6.0335   10.3468   26.3072 C   0  0  0  0  0  0  0  0  0  0  0  0
    6.8854    9.6772   25.4264 C   0  0  0  0  0  0  0  0  0  0  0  0
    7.8609   10.4049   24.7478 C   0  0  0  0  0  0  0  0  0  0  0  0
  1  2  1  0
  2  3  1  0
  3  4  2  0
  4  5  1  0
  5  6  2  0
  5  7  1  0
  7  8  1  0
  8  9  1  0
  9 10  1  0
 10 11  1  0
 11 12  1  0
 12 13  1  0
 12 14  1  0
 12 15  1  0
 10 16  1  0
 16 17  1  0
 17 18  1  0
  4 19  1  0
 19 20  2  0
 20 21  1  0
 21 22  1  0
 21 23  2  0
 23 24  1  0
 24 25  2  0
 25  2  1  0
 18 16  1  0
 25 19  1  0
M  END
>  <alias>  (366) 
None

>  <rmsd(smina/fragmenstein)>  (366) 
0.431

>  <smiles>  (366) 
Cn1nc(C(=O)NCCN(CC(F)(F)F)C2CC2)c2cc(F)ccc21

>  <gnina_score>  (366) 
6.147

>  <inspiration_score>  (366) 
None

>  <energy_score>  (366) 
-16.475698

>  <distance_score>  (366) 
0.900336

>  <gnina_score_min>  (366) 
6.167

>  <inchikey>  (366) 
QIJOJUJIVKBPNN-UHFFFAOYSA-N

>  <exports>  (366) 
['/opt/xchem-fragalysis-2/maxwin/BulkDock/OUTPUTS/openbind_a71ev2a_c2_elabs_1LOUU54.sdf', '/opt/xchem-fragalysis-2/maxwin/BulkDock/OUTPUTS/openbind_a71ev2a_c2_elabs_1LSYIDY.sdf']

>  <name>  (366) 
P570666

>  <ref_pdb>  (366) 
A2339a

>  <subsites>  (366) 
None

>  <HIPPO Pose ID>  (366) 
570666

>  <ref_mols>  (366) 
A2339a

>  <HIPPO Compound ID>  (366) 
411888

>  <tags>  (366) 
openbind_a71ev2a_c2_elabs,syndirella_product,openbind_a71ev2a_c2_elabs_scored,BulkDock Fragalysis export,openbind_a71ev2a_c2_elabs_scored_top80percent,openbind_a71ev2a_c2_elabs_scored_6plus,openbind_a71ev2a_c2_elabs_scored_top80percent_despaghettified,syndirella_placed

>  <smina_score_min>  (366) 
-6.502

$$$$
P570670
     RDKit          3D

 25 28  0  0  0  0  0  0  0  0999 V2000
    9.8874   15.1107   20.4603 C   0  0  0  0  0  0  0  0  0  0  0  0
   10.6336   15.5145   21.6793 C   0  0  2  0  0  0  0  0  0  0  0  0
   11.9192   14.8228   22.0384 C   0  0  0  0  0  0  0  0  0  0  0  0
   10.7102   14.6427   22.9017 C   0  0  2  0  0  0  0  0  0  0  0  0
   10.0976   13.4260   23.0529 N   0  0  0  0  0  0  0  0  0  0  0  0
    8.6610   13.0266   22.8750 C   0  0  0  0  0  0  0  0  0  0  0  0
    7.7532   13.6347   22.4946 O   0  0  0  0  0  0  0  0  0  0  0  0
    8.5799   11.7046   23.3803 C   0  0  0  0  0  0  0  0  0  0  0  0
    9.4086   10.7080   23.0770 N   0  0  0  0  0  0  0  0  0  0  0  0
    8.8586    9.6799   23.7432 N   0  0  0  0  0  0  0  0  0  0  0  0
    9.3409    8.3624   23.4340 C   0  0  0  0  0  0  0  0  0  0  0  0
    7.8906   10.0775   24.6427 C   0  0  0  0  0  0  0  0  0  0  0  0
    7.0496    9.4281   25.5323 C   0  0  0  0  0  0  0  0  0  0  0  0
    6.1972   10.1642   26.3625 C   0  0  0  0  0  0  0  0  0  0  0  0
    6.1787   11.5429   26.2862 C   0  0  0  0  0  0  0  0  0  0  0  0
    5.4008   12.2437   27.1198 F   0  0  0  0  0  0  0  0  0  0  0  0
    6.9442   12.2063   25.3418 C   0  0  0  0  0  0  0  0  0  0  0  0
    7.7784   11.4422   24.5009 C   0  0  0  0  0  0  0  0  0  0  0  0
   10.4312   15.1624   24.3204 C   0  0  0  0  0  0  0  0  0  0  0  0
    9.1110   15.4877   24.7428 C   0  0  0  0  0  0  0  0  0  0  0  0
    8.7651   15.7289   26.0816 C   0  0  0  0  0  0  0  0  0  0  0  0
    9.7380   15.6117   27.0590 C   0  0  0  0  0  0  0  0  0  0  0  0
    9.3629   15.9278   28.7032 Cl  0  0  0  0  0  0  0  0  0  0  0  0
   11.0137   15.1904   26.7084 C   0  0  0  0  0  0  0  0  0  0  0  0
   11.3157   14.9132   25.3656 C   0  0  0  0  0  0  0  0  0  0  0  0
  2  1  1  6
  2  3  1  0
  3  4  1  0
  4  5  1  6
  5  6  1  0
  6  7  2  0
  6  8  1  0
  8  9  2  0
  9 10  1  0
 10 11  1  0
 10 12  1  0
 12 13  2  0
 13 14  1  0
 14 15  2  0
 15 16  1  0
 15 17  1  0
 17 18  2  0
  4 19  1  0
 19 20  2  0
 20 21  1  0
 21 22  2  0
 22 23  1  0
 22 24  1  0
 24 25  2  0
  4  2  1  0
 18  8  1  0
 25 19  1  0
 18 12  1  0
M  END
>  <alias>  (367) 
None

>  <rmsd(smina/fragmenstein)>  (367) 
0.47

>  <smiles>  (367) 
C[C@@H]1C[C@@]1(NC(=O)c1nn(C)c2ccc(F)cc12)c1ccc(Cl)cc1

>  <gnina_score>  (367) 
6.267

>  <inspiration_score>  (367) 
None

>  <energy_score>  (367) 
-3.485879

>  <distance_score>  (367) 
1.020085

>  <gnina_score_min>  (367) 
6.229

>  <inchikey>  (367) 
HUIWAZAYSOQOQA-WYRIXSBYSA-N

>  <exports>  (367) 
['/opt/xchem-fragalysis-2/maxwin/BulkDock/OUTPUTS/openbind_a71ev2a_c2_elabs_1LOUU54.sdf', '/opt/xchem-fragalysis-2/maxwin/BulkDock/OUTPUTS/openbind_a71ev2a_c2_elabs_1LSYIDY.sdf']

>  <name>  (367) 
P570670

>  <ref_pdb>  (367) 
A2339a

>  <subsites>  (367) 
None

>  <HIPPO Pose ID>  (367) 
570670

>  <ref_mols>  (367) 
A2339a

>  <HIPPO Compound ID>  (367) 
411893

>  <tags>  (367) 
openbind_a71ev2a_c2_elabs,syndirella_product,openbind_a71ev2a_c2_elabs_scored,BulkDock Fragalysis export,openbind_a71ev2a_c2_elabs_scored_top80percent,openbind_a71ev2a_c2_elabs_scored_6plus,openbind_a71ev2a_c2_elabs_scored_top80percent_despaghettified,syndirella_placed

>  <smina_score_min>  (367) 
-6.264

$$$$
P570671
     RDKit          3D

 25 28  0  0  0  0  0  0  0  0999 V2000
    9.3498    8.3589   23.4435 C   0  0  0  0  0  0  0  0  0  0  0  0
    8.8684    9.6756   23.7549 N   0  0  0  0  0  0  0  0  0  0  0  0
    9.4166   10.7048   23.0879 N   0  0  0  0  0  0  0  0  0  0  0  0
    8.5760   11.6937   23.3842 C   0  0  0  0  0  0  0  0  0  0  0  0
    8.6282   13.0085   22.8579 C   0  0  0  0  0  0  0  0  0  0  0  0
    7.7123   13.5802   22.4438 O   0  0  0  0  0  0  0  0  0  0  0  0
   10.0441   13.4562   23.0653 N   0  0  0  0  0  0  0  0  0  0  0  0
   10.6207   14.6874   22.9086 C   0  0  0  0  0  0  0  0  0  0  0  0
   10.3351   15.2083   24.3238 C   0  0  0  0  0  0  0  0  0  0  0  0
   11.2497   14.9958   25.3547 C   0  0  0  0  0  0  0  0  0  0  0  0
   10.9658   15.2551   26.7026 C   0  0  0  0  0  0  0  0  0  0  0  0
    9.6823   15.6291   27.0809 C   0  0  0  0  0  0  0  0  0  0  0  0
    8.6817   15.7123   26.1149 C   0  0  0  0  0  0  0  0  0  0  0  0
    7.3336   15.9911   26.5177 C   0  0  0  0  0  0  0  0  0  0  0  0
    6.2645   16.1930   26.9186 N   0  0  0  0  0  0  0  0  0  0  0  0
    9.0088   15.4951   24.7650 C   0  0  0  0  0  0  0  0  0  0  0  0
   10.4248   15.4872   21.6541 C   0  0  0  0  0  0  0  0  0  0  0  0
   11.7827   14.9542   22.0120 C   0  0  0  0  0  0  0  0  0  0  0  0
    7.7778   11.4330   24.5071 C   0  0  0  0  0  0  0  0  0  0  0  0
    6.9292   12.1914   25.3383 C   0  0  0  0  0  0  0  0  0  0  0  0
    6.1681   11.5263   26.2850 C   0  0  0  0  0  0  0  0  0  0  0  0
    5.3850   12.2238   27.1160 F   0  0  0  0  0  0  0  0  0  0  0  0
    6.1959   10.1490   26.3642 C   0  0  0  0  0  0  0  0  0  0  0  0
    7.0555    9.4185   25.5373 C   0  0  0  0  0  0  0  0  0  0  0  0
    7.8993   10.0703   24.6530 C   0  0  0  0  0  0  0  0  0  0  0  0
  1  2  1  0
  2  3  1  0
  3  4  2  0
  4  5  1  0
  5  6  2  0
  5  7  1  0
  7  8  1  0
  8  9  1  0
  9 10  2  0
 10 11  1  0
 11 12  2  0
 12 13  1  0
 13 14  1  0
 14 15  3  0
 13 16  2  0
  8 17  1  0
 17 18  1  0
  4 19  1  0
 19 20  2  0
 20 21  1  0
 21 22  1  0
 21 23  2  0
 23 24  1  0
 24 25  2  0
 25  2  1  0
 18  8  1  0
 25 19  1  0
 16  9  1  0
M  END
>  <alias>  (368) 
None

>  <rmsd(smina/fragmenstein)>  (368) 
0.434

>  <smiles>  (368) 
Cn1nc(C(=O)NC2(c3cccc(C#N)c3)CC2)c2cc(F)ccc21

>  <gnina_score>  (368) 
6.063

>  <inspiration_score>  (368) 
None

>  <energy_score>  (368) 
-11.346958

>  <distance_score>  (368) 
1.042622

>  <gnina_score_min>  (368) 
5.997

>  <inchikey>  (368) 
ZVWYSGZZQXBNLM-UHFFFAOYSA-N

>  <exports>  (368) 
['/opt/xchem-fragalysis-2/maxwin/BulkDock/OUTPUTS/openbind_a71ev2a_c2_elabs_1LOUU54.sdf', '/opt/xchem-fragalysis-2/maxwin/BulkDock/OUTPUTS/openbind_a71ev2a_c2_elabs_1LSYIDY.sdf']

>  <name>  (368) 
P570671

>  <ref_pdb>  (368) 
A2339a

>  <subsites>  (368) 
None

>  <HIPPO Pose ID>  (368) 
570671

>  <ref_mols>  (368) 
A2339a

>  <HIPPO Compound ID>  (368) 
411896

>  <tags>  (368) 
openbind_a71ev2a_c2_elabs,syndirella_product,openbind_a71ev2a_c2_elabs_scored,BulkDock Fragalysis export,openbind_a71ev2a_c2_elabs_scored_top80percent,openbind_a71ev2a_c2_elabs_scored_top80percent_despaghettified,syndirella_placed

>  <smina_score_min>  (368) 
-5.702

$$$$
P570672
     RDKit          3D

 25 28  0  0  0  0  0  0  0  0999 V2000
    3.9176   13.6478   20.1648 C   0  0  0  0  0  0  0  0  0  0  0  0
    3.6908   14.5316   21.2515 O   0  0  0  0  0  0  0  0  0  0  0  0
    4.7913   15.0219   21.9004 C   0  0  0  0  0  0  0  0  0  0  0  0
    4.5015   15.8159   23.0017 C   0  0  0  0  0  0  0  0  0  0  0  0
    5.5368   16.3335   23.7628 C   0  0  0  0  0  0  0  0  0  0  0  0
    6.8631   16.0838   23.3944 C   0  0  0  0  0  0  0  0  0  0  0  0
    7.2200   15.3722   22.2355 C   0  0  0  0  0  0  0  0  0  0  0  0
    8.6848   14.9948   21.9362 C   0  0  0  0  0  0  0  0  0  0  0  0
    8.9320   13.8462   22.6755 N   0  0  0  0  0  0  0  0  0  0  0  0
    9.4169   13.6764   24.1067 C   0  0  0  0  0  0  0  0  0  0  0  0
    9.7655   14.4674   24.8845 O   0  0  0  0  0  0  0  0  0  0  0  0
    9.2505   12.2563   24.3309 C   0  0  0  0  0  0  0  0  0  0  0  0
    9.7574   11.3205   23.5111 N   0  0  0  0  0  0  0  0  0  0  0  0
    9.1036   10.1915   23.8580 N   0  0  0  0  0  0  0  0  0  0  0  0
    9.4880    8.9486   23.2260 C   0  0  0  0  0  0  0  0  0  0  0  0
    8.0933   10.4172   24.7655 C   0  0  0  0  0  0  0  0  0  0  0  0
    7.1361    9.5965   25.3556 C   0  0  0  0  0  0  0  0  0  0  0  0
    6.1887   10.1695   26.2095 C   0  0  0  0  0  0  0  0  0  0  0  0
    6.1980   11.5349   26.4471 C   0  0  0  0  0  0  0  0  0  0  0  0
    5.2924   12.0706   27.2739 F   0  0  0  0  0  0  0  0  0  0  0  0
    7.1582   12.3578   25.8766 C   0  0  0  0  0  0  0  0  0  0  0  0
    8.1449   11.7693   25.0635 C   0  0  0  0  0  0  0  0  0  0  0  0
    9.3552   15.0217   20.5791 C   0  0  0  0  0  0  0  0  0  0  0  0
    9.7449   16.0139   21.6128 C   0  0  0  0  0  0  0  0  0  0  0  0
    6.1329   14.7917   21.5544 C   0  0  0  0  0  0  0  0  0  0  0  0
  1  2  1  0
  2  3  1  0
  3  4  2  0
  4  5  1  0
  5  6  2  0
  6  7  1  0
  7  8  1  0
  8  9  1  0
  9 10  1  0
 10 11  2  0
 10 12  1  0
 12 13  2  0
 13 14  1  0
 14 15  1  0
 14 16  1  0
 16 17  2  0
 17 18  1  0
 18 19  2  0
 19 20  1  0
 19 21  1  0
 21 22  2  0
  8 23  1  0
 23 24  1  0
  7 25  2  0
 25  3  1  0
 24  8  1  0
 22 12  1  0
 22 16  1  0
M  END
>  <alias>  (369) 
None

>  <rmsd(smina/fragmenstein)>  (369) 
0.564

>  <smiles>  (369) 
COc1cccc(C2(NC(=O)c3nn(C)c4ccc(F)cc34)CC2)c1

>  <gnina_score>  (369) 
5.75

>  <inspiration_score>  (369) 
None

>  <energy_score>  (369) 
-11.141044

>  <distance_score>  (369) 
1.147895

>  <gnina_score_min>  (369) 
5.9

>  <inchikey>  (369) 
RNEJTLZMOMATFF-UHFFFAOYSA-N

>  <exports>  (369) 
['/opt/xchem-fragalysis-2/maxwin/BulkDock/OUTPUTS/openbind_a71ev2a_c2_elabs_1LOUU54.sdf', '/opt/xchem-fragalysis-2/maxwin/BulkDock/OUTPUTS/openbind_a71ev2a_c2_elabs_1LSYIDY.sdf']

>  <name>  (369) 
P570672

>  <ref_pdb>  (369) 
A2339a

>  <subsites>  (369) 
None

>  <HIPPO Pose ID>  (369) 
570672

>  <ref_mols>  (369) 
A2339a

>  <HIPPO Compound ID>  (369) 
411900

>  <tags>  (369) 
openbind_a71ev2a_c2_elabs,syndirella_product,openbind_a71ev2a_c2_elabs_scored,BulkDock Fragalysis export,openbind_a71ev2a_c2_elabs_scored_top80percent,openbind_a71ev2a_c2_elabs_scored_top80percent_despaghettified,syndirella_placed

>  <smina_score_min>  (369) 
-6.847

$$$$
P570673
     RDKit          3D

 25 28  0  0  0  0  0  0  0  0999 V2000
    4.5599   17.1759   25.6754 C   0  0  0  0  0  0  0  0  0  0  0  0
    5.8066   16.5667   25.3581 O   0  0  0  0  0  0  0  0  0  0  0  0
    5.9154   16.0957   24.0813 C   0  0  0  0  0  0  0  0  0  0  0  0
    4.8814   15.7407   23.2362 C   0  0  0  0  0  0  0  0  0  0  0  0
    5.0733   15.1681   22.0304 N   0  0  0  0  0  0  0  0  0  0  0  0
    6.3651   14.9824   21.6549 C   0  0  0  0  0  0  0  0  0  0  0  0
    7.5054   15.3866   22.3395 C   0  0  0  0  0  0  0  0  0  0  0  0
    8.9202   14.9585   21.9432 C   0  0  0  0  0  0  0  0  0  0  0  0
    9.1193   13.7757   22.6409 N   0  0  0  0  0  0  0  0  0  0  0  0
    9.6911   13.5302   24.0296 C   0  0  0  0  0  0  0  0  0  0  0  0
   10.1634   14.2694   24.7933 O   0  0  0  0  0  0  0  0  0  0  0  0
    9.4200   12.1285   24.2433 C   0  0  0  0  0  0  0  0  0  0  0  0
    9.8697   11.1586   23.4354 N   0  0  0  0  0  0  0  0  0  0  0  0
    9.1515   10.0752   23.7955 N   0  0  0  0  0  0  0  0  0  0  0  0
    9.4548    8.8125   23.1636 C   0  0  0  0  0  0  0  0  0  0  0  0
    8.1568   10.3663   24.7018 C   0  0  0  0  0  0  0  0  0  0  0  0
    7.1625    9.6058   25.3121 C   0  0  0  0  0  0  0  0  0  0  0  0
    6.2407   10.2396   26.1501 C   0  0  0  0  0  0  0  0  0  0  0  0
    6.3112   11.6076   26.3551 C   0  0  0  0  0  0  0  0  0  0  0  0
    5.4308   12.2009   27.1709 F   0  0  0  0  0  0  0  0  0  0  0  0
    7.3118   12.3716   25.7677 C   0  0  0  0  0  0  0  0  0  0  0  0
    8.2746   11.7198   24.9708 C   0  0  0  0  0  0  0  0  0  0  0  0
   10.0223   15.9289   21.6237 C   0  0  0  0  0  0  0  0  0  0  0  0
    9.5118   15.0265   20.5570 C   0  0  0  0  0  0  0  0  0  0  0  0
    7.2164   15.8859   23.6221 C   0  0  0  0  0  0  0  0  0  0  0  0
  1  2  1  0
  2  3  1  0
  3  4  2  0
  4  5  1  0
  5  6  2  0
  6  7  1  0
  7  8  1  0
  8  9  1  0
  9 10  1  0
 10 11  2  0
 10 12  1  0
 12 13  2  0
 13 14  1  0
 14 15  1  0
 14 16  1  0
 16 17  2  0
 17 18  1  0
 18 19  2  0
 19 20  1  0
 19 21  1  0
 21 22  2  0
  8 23  1  0
 23 24  1  0
  7 25  2  0
 25  3  1  0
 24  8  1  0
 22 12  1  0
 22 16  1  0
M  END
>  <alias>  (370) 
None

>  <rmsd(smina/fragmenstein)>  (370) 
0.403

>  <smiles>  (370) 
COc1cncc(C2(NC(=O)c3nn(C)c4ccc(F)cc34)CC2)c1

>  <gnina_score>  (370) 
5.99

>  <inspiration_score>  (370) 
None

>  <energy_score>  (370) 
-22.021806

>  <distance_score>  (370) 
1.025341

>  <gnina_score_min>  (370) 
6.018

>  <inchikey>  (370) 
VFTJPFSGJUHRHW-UHFFFAOYSA-N

>  <exports>  (370) 
['/opt/xchem-fragalysis-2/maxwin/BulkDock/OUTPUTS/openbind_a71ev2a_c2_elabs_1LOUU54.sdf', '/opt/xchem-fragalysis-2/maxwin/BulkDock/OUTPUTS/openbind_a71ev2a_c2_elabs_1LSYIDY.sdf']

>  <name>  (370) 
P570673

>  <ref_pdb>  (370) 
A2339a

>  <subsites>  (370) 
None

>  <HIPPO Pose ID>  (370) 
570673

>  <ref_mols>  (370) 
A2339a

>  <HIPPO Compound ID>  (370) 
411902

>  <tags>  (370) 
openbind_a71ev2a_c2_elabs,syndirella_product,openbind_a71ev2a_c2_elabs_scored,BulkDock Fragalysis export,openbind_a71ev2a_c2_elabs_scored_top80percent,openbind_a71ev2a_c2_elabs_scored_6plus,openbind_a71ev2a_c2_elabs_scored_top80percent_despaghettified,syndirella_placed

>  <smina_score_min>  (370) 
-6.602

$$$$
P570674
     RDKit          3D

 25 28  0  0  0  0  0  0  0  0999 V2000
    7.3134   16.0790   26.2861 C   0  0  0  0  0  0  0  0  0  0  0  0
    8.7604   15.6828   26.0643 C   0  0  0  0  0  0  0  0  0  0  0  0
    8.9626   15.4922   24.6518 O   0  0  0  0  0  0  0  0  0  0  0  0
   10.2663   15.4230   24.2295 C   0  0  0  0  0  0  0  0  0  0  0  0
   11.2301   15.6053   24.9612 O   0  0  0  0  0  0  0  0  0  0  0  0
   10.3590   14.9905   22.7855 C   0  0  1  0  0  0  0  0  0  0  0  0
    9.9522   13.6729   22.8587 N   0  0  0  0  0  0  0  0  0  0  0  0
   10.5940   12.4832   23.5314 C   0  0  0  0  0  0  0  0  0  0  0  0
   11.6124   12.3852   24.0745 O   0  0  0  0  0  0  0  0  0  0  0  0
    9.6369   11.4163   23.4836 C   0  0  0  0  0  0  0  0  0  0  0  0
    9.8513   10.2789   22.8466 N   0  0  0  0  0  0  0  0  0  0  0  0
    9.0616    9.4303   23.4997 N   0  0  0  0  0  0  0  0  0  0  0  0
    9.3550    8.0439   23.3289 C   0  0  0  0  0  0  0  0  0  0  0  0
    8.1715   10.0280   24.3605 C   0  0  0  0  0  0  0  0  0  0  0  0
    7.1886    9.5506   25.2320 C   0  0  0  0  0  0  0  0  0  0  0  0
    6.4550   10.4487   26.0062 C   0  0  0  0  0  0  0  0  0  0  0  0
    6.7194   11.7998   25.9219 C   0  0  0  0  0  0  0  0  0  0  0  0
    6.0476   12.6465   26.7141 F   0  0  0  0  0  0  0  0  0  0  0  0
    7.7190   12.2818   25.0787 C   0  0  0  0  0  0  0  0  0  0  0  0
    8.4631   11.3787   24.2922 C   0  0  0  0  0  0  0  0  0  0  0  0
   10.0869   15.8179   21.5579 C   0  0  2  0  0  0  0  0  0  0  0  0
    9.8183   15.2070   20.2171 C   0  0  0  0  0  0  0  0  0  0  0  0
   11.1926   14.9182   19.6225 C   0  0  0  0  0  0  0  0  0  0  0  0
   12.0988   14.6667   20.8212 C   0  0  0  0  0  0  0  0  0  0  0  0
   11.4958   15.4796   21.9212 C   0  0  2  0  0  0  0  0  0  0  0  0
  1  2  1  0
  2  3  1  0
  3  4  1  0
  4  5  2  0
  4  6  1  0
  6  7  1  1
  7  8  1  0
  8  9  2  0
  8 10  1  0
 10 11  2  0
 11 12  1  0
 12 13  1  0
 12 14  1  0
 14 15  2  0
 15 16  1  0
 16 17  2  0
 17 18  1  0
 17 19  1  0
 19 20  2  0
  6 21  1  0
 21 22  1  6
 22 23  1  0
 23 24  1  0
 25 24  1  6
 25  6  1  0
 20 10  1  0
 25 21  1  0
 20 14  1  0
M  END
>  <alias>  (371) 
None

>  <rmsd(smina/fragmenstein)>  (371) 
0.201

>  <smiles>  (371) 
CCOC(=O)[C@@]1(NC(=O)c2nn(C)c3ccc(F)cc23)[C@@H]2CCC[C@@H]21

>  <gnina_score>  (371) 
6.14

>  <inspiration_score>  (371) 
None

>  <energy_score>  (371) 
-10.717079

>  <distance_score>  (371) 
1.108812

>  <gnina_score_min>  (371) 
6.193

>  <inchikey>  (371) 
QXCVFNLILIPEOI-IVWMJMPLSA-N

>  <exports>  (371) 
['/opt/xchem-fragalysis-2/maxwin/BulkDock/OUTPUTS/openbind_a71ev2a_c2_elabs_1LOUU54.sdf', '/opt/xchem-fragalysis-2/maxwin/BulkDock/OUTPUTS/openbind_a71ev2a_c2_elabs_1LSYIDY.sdf']

>  <name>  (371) 
P570674

>  <ref_pdb>  (371) 
A2339a

>  <subsites>  (371) 
None

>  <HIPPO Pose ID>  (371) 
570674

>  <ref_mols>  (371) 
A2339a

>  <HIPPO Compound ID>  (371) 
411904

>  <tags>  (371) 
openbind_a71ev2a_c2_elabs,syndirella_product,openbind_a71ev2a_c2_elabs_scored,BulkDock Fragalysis export,openbind_a71ev2a_c2_elabs_scored_top80percent,openbind_a71ev2a_c2_elabs_scored_6plus,openbind_a71ev2a_c2_elabs_scored_top80percent_despaghettified,syndirella_placed

>  <smina_score_min>  (371) 
-5.433

$$$$
P570675
     RDKit          3D

 25 28  0  0  0  0  0  0  0  0999 V2000
    8.8964    9.0406   23.7134 C   0  0  0  0  0  0  0  0  0  0  0  0
    8.2984   10.2960   24.1119 N   0  0  0  0  0  0  0  0  0  0  0  0
    8.7458   11.4213   23.5446 N   0  0  0  0  0  0  0  0  0  0  0  0
    8.2264   12.4089   24.3063 C   0  0  0  0  0  0  0  0  0  0  0  0
    8.8728   13.7106   24.3058 C   0  0  0  0  0  0  0  0  0  0  0  0
    8.9489   14.3796   25.2559 O   0  0  0  0  0  0  0  0  0  0  0  0
    9.4597   13.9006   22.9133 N   0  0  0  0  0  0  0  0  0  0  0  0
   10.2957   14.8449   22.4350 C   0  0  0  0  0  0  0  0  0  0  0  0
   10.4760   15.2379   21.1475 C   0  0  0  0  0  0  0  0  0  0  0  0
    9.4521   15.1302   20.0410 C   0  0  0  0  0  0  0  0  0  0  0  0
    9.7350   15.7001   18.9509 O   0  0  0  0  0  0  0  0  0  0  0  0
    8.4185   14.4456   20.3394 O   0  0  0  0  0  0  0  0  0  0  0  0
   11.8325   15.5080   21.0247 C   0  0  0  0  0  0  0  0  0  0  0  0
   12.4854   15.3600   22.1804 N   0  0  0  0  0  0  0  0  0  0  0  0
   11.5107   15.0182   23.0449 N   0  0  0  0  0  0  0  0  0  0  0  0
   11.8206   14.1593   24.2412 C   0  0  0  0  0  0  0  0  0  0  0  0
   13.0355   13.3227   24.5176 C   0  0  0  0  0  0  0  0  0  0  0  0
   11.8728   12.6838   23.8884 C   0  0  0  0  0  0  0  0  0  0  0  0
    7.3074   11.9188   25.2338 C   0  0  0  0  0  0  0  0  0  0  0  0
    6.5104   12.5022   26.2238 C   0  0  0  0  0  0  0  0  0  0  0  0
    5.7243   11.6636   26.9932 C   0  0  0  0  0  0  0  0  0  0  0  0
    4.9599   12.2010   27.9478 F   0  0  0  0  0  0  0  0  0  0  0  0
    5.7205   10.2893   26.8072 C   0  0  0  0  0  0  0  0  0  0  0  0
    6.5319    9.7061   25.8338 C   0  0  0  0  0  0  0  0  0  0  0  0
    7.3449   10.5366   25.0710 C   0  0  0  0  0  0  0  0  0  0  0  0
  1  2  1  0
  2  3  1  0
  3  4  2  0
  4  5  1  0
  5  6  2  0
  5  7  1  0
  7  8  1  0
  8  9  2  0
  9 10  1  0
 10 11  2  0
 10 12  1  0
  9 13  1  0
 13 14  2  0
 14 15  1  0
 15 16  1  0
 16 17  1  0
 17 18  1  0
  4 19  1  0
 19 20  2  0
 20 21  1  0
 21 22  1  0
 21 23  2  0
 23 24  1  0
 24 25  2  0
 25  2  1  0
 15  8  1  0
 18 16  1  0
 25 19  1  0
M  CHG  1  12  -1
M  END
>  <alias>  (372) 
None

>  <rmsd(smina/fragmenstein)>  (372) 
0.472

>  <smiles>  (372) 
Cn1nc(C(=O)Nc2c(C(=O)[O-])cnn2C2CC2)c2cc(F)ccc21

>  <gnina_score>  (372) 
6.115

>  <inspiration_score>  (372) 
None

>  <energy_score>  (372) 
-29.196194

>  <distance_score>  (372) 
1.101979

>  <gnina_score_min>  (372) 
5.962

>  <inchikey>  (372) 
HGUFGHKJUIMSDQ-UHFFFAOYSA-M

>  <exports>  (372) 
['/opt/xchem-fragalysis-2/maxwin/BulkDock/OUTPUTS/openbind_a71ev2a_c2_elabs_1LOUU54.sdf', '/opt/xchem-fragalysis-2/maxwin/BulkDock/OUTPUTS/openbind_a71ev2a_c2_elabs_1LSYIDY.sdf']

>  <name>  (372) 
P570675

>  <ref_pdb>  (372) 
A2339a

>  <subsites>  (372) 
None

>  <HIPPO Pose ID>  (372) 
570675

>  <ref_mols>  (372) 
A2339a

>  <HIPPO Compound ID>  (372) 
411908

>  <tags>  (372) 
openbind_a71ev2a_c2_elabs,syndirella_product,openbind_a71ev2a_c2_elabs_scored,BulkDock Fragalysis export,openbind_a71ev2a_c2_elabs_scored_top80percent,openbind_a71ev2a_c2_elabs_scored_top80percent_despaghettified,syndirella_placed

>  <smina_score_min>  (372) 
-6.395

$$$$
P570676
     RDKit          3D

 25 29  0  0  0  0  0  0  0  0999 V2000
    8.6001    8.7231   23.8540 C   0  0  0  0  0  0  0  0  0  0  0  0
    8.1139   10.0040   24.2989 N   0  0  0  0  0  0  0  0  0  0  0  0
    8.8055   11.0665   23.8867 N   0  0  0  0  0  0  0  0  0  0  0  0
    8.3801   12.0467   24.6938 C   0  0  0  0  0  0  0  0  0  0  0  0
    9.2191   13.1999   24.9179 C   0  0  0  0  0  0  0  0  0  0  0  0
    8.8251   14.1443   25.5372 O   0  0  0  0  0  0  0  0  0  0  0  0
   10.5035   12.9129   24.3728 N   0  0  0  0  0  0  0  0  0  0  0  0
   11.6512   13.6745   24.3166 C   0  0  1  0  0  0  0  0  0  0  0  0
   12.4992   14.2296   23.2291 C   0  0  1  0  0  0  0  0  0  0  0  0
   12.4051   14.1541   21.7460 C   0  0  0  0  0  0  0  0  0  0  0  0
   11.1017   14.7749   21.4262 C   0  0  0  0  0  0  0  0  0  0  0  0
   10.5710   14.9202   20.1841 C   0  0  0  0  0  0  0  0  0  0  0  0
   11.6039   14.7100   18.6435 Br  0  0  0  0  0  0  0  0  0  0  0  0
    9.2385   15.2297   20.1097 C   0  0  0  0  0  0  0  0  0  0  0  0
    8.4663   15.4294   21.2624 C   0  0  0  0  0  0  0  0  0  0  0  0
    9.0603   15.3984   22.5086 C   0  0  0  0  0  0  0  0  0  0  0  0
   10.4084   15.1295   22.5808 C   0  0  0  0  0  0  0  0  0  0  0  0
   11.3120   15.0130   23.7527 C   0  0  1  0  0  0  0  0  0  0  0  0
    7.2601   11.6839   25.4548 C   0  0  0  0  0  0  0  0  0  0  0  0
    6.4543   12.3263   26.4137 C   0  0  0  0  0  0  0  0  0  0  0  0
    5.5332   11.5670   27.1174 C   0  0  0  0  0  0  0  0  0  0  0  0
    4.7736   12.1531   28.0504 F   0  0  0  0  0  0  0  0  0  0  0  0
    5.3972   10.2113   26.8819 C   0  0  0  0  0  0  0  0  0  0  0  0
    6.1685    9.5820   25.9010 C   0  0  0  0  0  0  0  0  0  0  0  0
    7.1326   10.3192   25.2160 C   0  0  0  0  0  0  0  0  0  0  0  0
  1  2  1  0
  2  3  1  0
  3  4  2  0
  4  5  1  0
  5  6  2  0
  5  7  1  0
  8  7  1  6
  8  9  1  0
  9 10  1  6
 10 11  1  0
 11 12  2  0
 12 13  1  0
 12 14  1  0
 14 15  2  0
 15 16  1  0
 16 17  2  0
 18 17  1  6
  4 19  1  0
 19 20  2  0
 20 21  1  0
 21 22  1  0
 21 23  2  0
 23 24  1  0
 24 25  2  0
 25  2  1  0
 18  8  1  0
 25 19  1  0
 18  9  1  0
 17 11  1  0
M  END
>  <alias>  (373) 
None

>  <rmsd(smina/fragmenstein)>  (373) 
0.222

>  <smiles>  (373) 
Cn1nc(C(=O)N[C@H]2[C@H]3Cc4c(Br)cccc4[C@H]32)c2cc(F)ccc21

>  <gnina_score>  (373) 
6.119

>  <inspiration_score>  (373) 
None

>  <energy_score>  (373) 
-10.846073

>  <distance_score>  (373) 
1.830807

>  <gnina_score_min>  (373) 
6.171

>  <inchikey>  (373) 
RTZVTDHYUBIFSC-XKQJLSEDSA-N

>  <exports>  (373) 
['/opt/xchem-fragalysis-2/maxwin/BulkDock/OUTPUTS/openbind_a71ev2a_c2_elabs_1LOUU54.sdf', '/opt/xchem-fragalysis-2/maxwin/BulkDock/OUTPUTS/openbind_a71ev2a_c2_elabs_1LSYIDY.sdf']

>  <name>  (373) 
P570676

>  <ref_pdb>  (373) 
A2339a

>  <subsites>  (373) 
None

>  <HIPPO Pose ID>  (373) 
570676

>  <ref_mols>  (373) 
A2339a

>  <HIPPO Compound ID>  (373) 
411912

>  <tags>  (373) 
openbind_a71ev2a_c2_elabs,syndirella_product,openbind_a71ev2a_c2_elabs_scored,BulkDock Fragalysis export,openbind_a71ev2a_c2_elabs_scored_top80percent,openbind_a71ev2a_c2_elabs_scored_6plus,openbind_a71ev2a_c2_elabs_scored_top80percent_despaghettified,syndirella_placed

>  <smina_score_min>  (373) 
-5.734

$$$$
P570677
     RDKit          3D

 25 28  0  0  0  0  0  0  0  0999 V2000
   11.4303   15.2758   28.0495 C   0  0  0  0  0  0  0  0  0  0  0  0
   10.5249   15.4060   26.8556 C   0  0  0  0  0  0  0  0  0  0  0  0
   11.0081   15.1066   25.5565 C   0  0  0  0  0  0  0  0  0  0  0  0
   10.2363   15.2323   24.3919 C   0  0  0  0  0  0  0  0  0  0  0  0
   10.6763   14.6718   23.0277 C   0  0  0  0  0  0  0  0  0  0  0  0
   10.1160   13.4280   23.1566 N   0  0  0  0  0  0  0  0  0  0  0  0
    8.7331   12.9404   22.8297 C   0  0  0  0  0  0  0  0  0  0  0  0
    7.8451   13.4820   22.3219 O   0  0  0  0  0  0  0  0  0  0  0  0
    8.6568   11.6373   23.3723 C   0  0  0  0  0  0  0  0  0  0  0  0
    9.4531   10.6203   23.0626 N   0  0  0  0  0  0  0  0  0  0  0  0
    8.8903    9.6166   23.7517 N   0  0  0  0  0  0  0  0  0  0  0  0
    9.3530    8.2907   23.4584 C   0  0  0  0  0  0  0  0  0  0  0  0
    7.9234   10.0399   24.6401 C   0  0  0  0  0  0  0  0  0  0  0  0
    7.0593    9.4169   25.5270 C   0  0  0  0  0  0  0  0  0  0  0  0
    6.2121   10.1749   26.3425 C   0  0  0  0  0  0  0  0  0  0  0  0
    6.2179   11.5520   26.2517 C   0  0  0  0  0  0  0  0  0  0  0  0
    5.4413   12.2744   27.0680 F   0  0  0  0  0  0  0  0  0  0  0  0
    7.0060   12.1905   25.3086 C   0  0  0  0  0  0  0  0  0  0  0  0
    7.8417   11.4048   24.4889 C   0  0  0  0  0  0  0  0  0  0  0  0
   11.8407   14.9704   22.1464 C   0  0  0  0  0  0  0  0  0  0  0  0
   10.4777   15.4363   21.7391 C   0  0  0  0  0  0  0  0  0  0  0  0
    8.8639   15.5192   24.6304 C   0  0  0  0  0  0  0  0  0  0  0  0
    8.3452   15.8092   25.8976 C   0  0  0  0  0  0  0  0  0  0  0  0
    9.1810   15.7735   27.0046 C   0  0  0  0  0  0  0  0  0  0  0  0
    8.4239   16.1907   28.6924 Br  0  0  0  0  0  0  0  0  0  0  0  0
  1  2  1  0
  2  3  2  0
  3  4  1  0
  4  5  1  0
  5  6  1  0
  6  7  1  0
  7  8  2  0
  7  9  1  0
  9 10  2  0
 10 11  1  0
 11 12  1  0
 11 13  1  0
 13 14  2  0
 14 15  1  0
 15 16  2  0
 16 17  1  0
 16 18  1  0
 18 19  2  0
  5 20  1  0
 20 21  1  0
  4 22  2  0
 22 23  1  0
 23 24  2  0
 24 25  1  0
 24  2  1  0
 21  5  1  0
 19  9  1  0
 19 13  1  0
M  END
>  <alias>  (374) 
None

>  <rmsd(smina/fragmenstein)>  (374) 
0.446

>  <smiles>  (374) 
Cc1cc(C2(NC(=O)c3nn(C)c4ccc(F)cc34)CC2)ccc1Br

>  <gnina_score>  (374) 
6.244

>  <inspiration_score>  (374) 
None

>  <energy_score>  (374) 
-13.808801

>  <distance_score>  (374) 
1.064367

>  <gnina_score_min>  (374) 
6.198

>  <inchikey>  (374) 
RDVCNSHOIUPPAE-UHFFFAOYSA-N

>  <exports>  (374) 
['/opt/xchem-fragalysis-2/maxwin/BulkDock/OUTPUTS/openbind_a71ev2a_c2_elabs_1LOUU54.sdf', '/opt/xchem-fragalysis-2/maxwin/BulkDock/OUTPUTS/openbind_a71ev2a_c2_elabs_1LSYIDY.sdf']

>  <name>  (374) 
P570677

>  <ref_pdb>  (374) 
A2339a

>  <subsites>  (374) 
None

>  <HIPPO Pose ID>  (374) 
570677

>  <ref_mols>  (374) 
A2339a

>  <HIPPO Compound ID>  (374) 
411915

>  <tags>  (374) 
openbind_a71ev2a_c2_elabs,syndirella_product,openbind_a71ev2a_c2_elabs_scored,BulkDock Fragalysis export,openbind_a71ev2a_c2_elabs_scored_top80percent,openbind_a71ev2a_c2_elabs_scored_6plus,openbind_a71ev2a_c2_elabs_scored_top80percent_despaghettified,syndirella_placed

>  <smina_score_min>  (374) 
-6.201

$$$$
P570678
     RDKit          3D

 25 28  0  0  0  0  0  0  0  0999 V2000
    9.2605    9.1484   23.3504 C   0  0  0  0  0  0  0  0  0  0  0  0
    8.7524   10.3792   23.9200 N   0  0  0  0  0  0  0  0  0  0  0  0
    9.3384   11.5388   23.5705 N   0  0  0  0  0  0  0  0  0  0  0  0
    8.7020   12.4702   24.3137 C   0  0  0  0  0  0  0  0  0  0  0  0
    9.1577   13.8614   24.3371 C   0  0  0  0  0  0  0  0  0  0  0  0
    8.6711   14.6922   24.9829 O   0  0  0  0  0  0  0  0  0  0  0  0
   10.3630   13.9070   23.4240 N   0  0  0  0  0  0  0  0  0  0  0  0
   11.2819   14.9395   23.1748 C   0  0  0  0  0  0  0  0  0  0  0  0
   11.6063   14.8582   21.7652 C   0  0  0  0  0  0  0  0  0  0  0  0
   12.2563   13.8669   21.0869 C   0  0  0  0  0  0  0  0  0  0  0  0
   12.2851   14.2874   19.7645 C   0  0  0  0  0  0  0  0  0  0  0  0
   11.6772   15.4446   19.5960 N   0  0  0  0  0  0  0  0  0  0  0  0
   11.2145   15.7245   20.8070 N   0  0  0  0  0  0  0  0  0  0  0  0
   10.2819   16.8040   20.9963 C   0  0  2  0  0  0  0  0  0  0  0  0
    8.7993   16.5609   21.0900 C   0  0  0  0  0  0  0  0  0  0  0  0
    9.4130   17.1934   19.8959 C   0  0  0  0  0  0  0  0  0  0  0  0
    9.5317   16.5341   18.6944 F   0  0  0  0  0  0  0  0  0  0  0  0
    9.1247   18.5098   19.6210 F   0  0  0  0  0  0  0  0  0  0  0  0
    7.6719   11.9161   25.0843 C   0  0  0  0  0  0  0  0  0  0  0  0
    6.7373   12.4287   25.9956 C   0  0  0  0  0  0  0  0  0  0  0  0
    5.9071   11.5354   26.6523 C   0  0  0  0  0  0  0  0  0  0  0  0
    5.0400   12.0092   27.5534 F   0  0  0  0  0  0  0  0  0  0  0  0
    5.9838   10.1706   26.4222 C   0  0  0  0  0  0  0  0  0  0  0  0
    6.9094    9.6600   25.5087 C   0  0  0  0  0  0  0  0  0  0  0  0
    7.7496   10.5494   24.8450 C   0  0  0  0  0  0  0  0  0  0  0  0
  1  2  1  0
  2  3  1  0
  3  4  2  0
  4  5  1  0
  5  6  2  0
  5  7  1  0
  7  8  1  0
  8  9  1  0
  9 10  2  0
 10 11  1  0
 11 12  2  0
 12 13  1  0
 14 13  1  6
 14 15  1  0
 15 16  1  0
 16 17  1  0
 16 18  1  0
  4 19  1  0
 19 20  2  0
 20 21  1  0
 21 22  1  0
 21 23  2  0
 23 24  1  0
 24 25  2  0
 25  2  1  0
 13  9  1  0
 16 14  1  0
 25 19  1  0
M  END
>  <alias>  (375) 
None

>  <rmsd(smina/fragmenstein)>  (375) 
0.97

>  <smiles>  (375) 
Cn1nc(C(=O)NCc2ccnn2[C@@H]2CC2(F)F)c2cc(F)ccc21

>  <gnina_score>  (375) 
5.977

>  <inspiration_score>  (375) 
None

>  <energy_score>  (375) 
-16.05939

>  <distance_score>  (375) 
0.99696

>  <gnina_score_min>  (375) 
5.787

>  <inchikey>  (375) 
SJVLWKGAPUDQNI-CYBMUJFWSA-N

>  <exports>  (375) 
['/opt/xchem-fragalysis-2/maxwin/BulkDock/OUTPUTS/openbind_a71ev2a_c2_elabs_1LOUU54.sdf', '/opt/xchem-fragalysis-2/maxwin/BulkDock/OUTPUTS/openbind_a71ev2a_c2_elabs_1LSYIDY.sdf']

>  <name>  (375) 
P570678

>  <ref_pdb>  (375) 
A2339a

>  <subsites>  (375) 
None

>  <HIPPO Pose ID>  (375) 
570678

>  <ref_mols>  (375) 
A2339a

>  <HIPPO Compound ID>  (375) 
411920

>  <tags>  (375) 
openbind_a71ev2a_c2_elabs,syndirella_product,openbind_a71ev2a_c2_elabs_scored,BulkDock Fragalysis export,openbind_a71ev2a_c2_elabs_scored_top80percent,openbind_a71ev2a_c2_elabs_scored_top80percent_despaghettified,syndirella_placed

>  <smina_score_min>  (375) 
-5.495

$$$$
P570680
     RDKit          3D

 25 27  0  0  0  0  0  0  0  0999 V2000
    9.5511    8.9604   23.1085 C   0  0  0  0  0  0  0  0  0  0  0  0
    9.1367   10.2648   23.5769 N   0  0  0  0  0  0  0  0  0  0  0  0
    9.7691   11.3547   23.1013 N   0  0  0  0  0  0  0  0  0  0  0  0
    9.2037   12.3855   23.7537 C   0  0  0  0  0  0  0  0  0  0  0  0
    9.7056   13.7602   23.5985 C   0  0  0  0  0  0  0  0  0  0  0  0
    9.3260   14.6104   24.3023 O   0  0  0  0  0  0  0  0  0  0  0  0
   10.7678   13.7880   22.4791 N   0  0  0  0  0  0  0  0  0  0  0  0
   11.6277   14.8132   22.0668 C   0  0  1  0  0  0  0  0  0  0  0  0
   12.1451   15.1590   20.7095 C   0  0  1  0  0  0  0  0  0  0  0  0
   11.8610   14.4552   19.4573 C   0  0  0  0  0  0  0  0  0  0  0  0
   10.5774   14.0911   19.3803 F   0  0  0  0  0  0  0  0  0  0  0  0
   12.1215   15.2331   18.3877 F   0  0  0  0  0  0  0  0  0  0  0  0
   12.6453   13.3687   19.3628 F   0  0  0  0  0  0  0  0  0  0  0  0
   11.0988   16.0392   21.3570 C   0  0  1  0  0  0  0  0  0  0  0  0
    9.7422   16.1875   20.7574 C   0  0  0  0  0  0  0  0  0  0  0  0
    9.0549   17.1886   21.3387 F   0  0  0  0  0  0  0  0  0  0  0  0
    8.9833   15.0710   20.8536 F   0  0  0  0  0  0  0  0  0  0  0  0
    9.8657   16.5038   19.4461 F   0  0  0  0  0  0  0  0  0  0  0  0
    8.1601   11.9476   24.6134 C   0  0  0  0  0  0  0  0  0  0  0  0
    7.2492   12.5670   25.4917 C   0  0  0  0  0  0  0  0  0  0  0  0
    6.3750   11.7657   26.2224 C   0  0  0  0  0  0  0  0  0  0  0  0
    5.5302   12.3390   27.0898 F   0  0  0  0  0  0  0  0  0  0  0  0
    6.3816   10.3836   26.0991 C   0  0  0  0  0  0  0  0  0  0  0  0
    7.2810    9.7585   25.2330 C   0  0  0  0  0  0  0  0  0  0  0  0
    8.1576   10.5608   24.4957 C   0  0  0  0  0  0  0  0  0  0  0  0
  1  2  1  0
  2  3  1  0
  3  4  2  0
  4  5  1  0
  5  6  2  0
  5  7  1  0
  8  7  1  6
  8  9  1  0
  9 10  1  6
 10 11  1  0
 10 12  1  0
 10 13  1  0
  9 14  1  0
 14 15  1  6
 15 16  1  0
 15 17  1  0
 15 18  1  0
  4 19  1  0
 19 20  2  0
 20 21  1  0
 21 22  1  0
 21 23  2  0
 23 24  1  0
 24 25  2  0
 25  2  1  0
 14  8  1  0
 25 19  1  0
M  END
>  <alias>  (376) 
None

>  <rmsd(smina/fragmenstein)>  (376) 
0.18

>  <smiles>  (376) 
Cn1nc(C(=O)N[C@H]2[C@@H](C(F)(F)F)[C@H]2C(F)(F)F)c2cc(F)ccc21

>  <gnina_score>  (376) 
5.792

>  <inspiration_score>  (376) 
None

>  <energy_score>  (376) 
-37.832755

>  <distance_score>  (376) 
0.419475

>  <gnina_score_min>  (376) 
5.844

>  <inchikey>  (376) 
KURXRZSBYQSYLR-DOFRTFSJSA-N

>  <exports>  (376) 
['/opt/xchem-fragalysis-2/maxwin/BulkDock/OUTPUTS/openbind_a71ev2a_c2_elabs_1LOUU54.sdf', '/opt/xchem-fragalysis-2/maxwin/BulkDock/OUTPUTS/openbind_a71ev2a_c2_elabs_1LSYIDY.sdf']

>  <name>  (376) 
P570680

>  <ref_pdb>  (376) 
A2339a

>  <subsites>  (376) 
None

>  <HIPPO Pose ID>  (376) 
570680

>  <ref_mols>  (376) 
A2339a

>  <HIPPO Compound ID>  (376) 
411921

>  <tags>  (376) 
openbind_a71ev2a_c2_elabs,syndirella_product,openbind_a71ev2a_c2_elabs_scored,BulkDock Fragalysis export,openbind_a71ev2a_c2_elabs_scored_top80percent,openbind_a71ev2a_c2_elabs_scored_top80percent_despaghettified,syndirella_placed

>  <smina_score_min>  (376) 
-7.175

$$$$
P570685
     RDKit          3D

 25 28  0  0  0  0  0  0  0  0999 V2000
    9.3223    8.3278   23.4715 C   0  0  0  0  0  0  0  0  0  0  0  0
    8.8491    9.6519   23.7578 N   0  0  0  0  0  0  0  0  0  0  0  0
    9.3980   10.6587   23.0594 N   0  0  0  0  0  0  0  0  0  0  0  0
    8.5902   11.6706   23.3659 C   0  0  0  0  0  0  0  0  0  0  0  0
    8.6707   12.9824   22.8365 C   0  0  0  0  0  0  0  0  0  0  0  0
    7.7644   13.5766   22.4328 O   0  0  0  0  0  0  0  0  0  0  0  0
   10.1005   13.3943   23.0249 N   0  0  0  0  0  0  0  0  0  0  0  0
   10.7062   14.6099   22.8583 C   0  0  0  0  0  0  0  0  0  0  0  0
   10.4206   15.1402   24.2654 C   0  0  0  0  0  0  0  0  0  0  0  0
    9.1036   15.4945   24.6707 C   0  0  0  0  0  0  0  0  0  0  0  0
    8.7503   15.7506   26.0057 C   0  0  0  0  0  0  0  0  0  0  0  0
    9.7112   15.6156   26.9943 C   0  0  0  0  0  0  0  0  0  0  0  0
    9.2904   15.9986   28.7914 Br  0  0  0  0  0  0  0  0  0  0  0  0
   10.9707   15.1386   26.6641 C   0  0  0  0  0  0  0  0  0  0  0  0
   11.2645   14.8363   25.3290 C   0  0  0  0  0  0  0  0  0  0  0  0
   12.3201   14.0514   25.0693 F   0  0  0  0  0  0  0  0  0  0  0  0
   10.5334   15.4242   21.6091 C   0  0  0  0  0  0  0  0  0  0  0  0
   11.8755   14.8524   21.9673 C   0  0  0  0  0  0  0  0  0  0  0  0
    7.7949   11.4347   24.4975 C   0  0  0  0  0  0  0  0  0  0  0  0
    6.9714   12.2192   25.3306 C   0  0  0  0  0  0  0  0  0  0  0  0
    6.1963   11.5770   26.2822 C   0  0  0  0  0  0  0  0  0  0  0  0
    5.4295   12.2979   27.1092 F   0  0  0  0  0  0  0  0  0  0  0  0
    6.1936   10.1994   26.3713 C   0  0  0  0  0  0  0  0  0  0  0  0
    7.0352    9.4429   25.5487 C   0  0  0  0  0  0  0  0  0  0  0  0
    7.8884   10.0706   24.6541 C   0  0  0  0  0  0  0  0  0  0  0  0
  1  2  1  0
  2  3  1  0
  3  4  2  0
  4  5  1  0
  5  6  2  0
  5  7  1  0
  7  8  1  0
  8  9  1  0
  9 10  2  0
 10 11  1  0
 11 12  2  0
 12 13  1  0
 12 14  1  0
 14 15  2  0
 15 16  1  0
  8 17  1  0
 17 18  1  0
  4 19  1  0
 19 20  2  0
 20 21  1  0
 21 22  1  0
 21 23  2  0
 23 24  1  0
 24 25  2  0
 25  2  1  0
 18  8  1  0
 25 19  1  0
 15  9  1  0
M  END
>  <alias>  (377) 
None

>  <rmsd(smina/fragmenstein)>  (377) 
0.445

>  <smiles>  (377) 
Cn1nc(C(=O)NC2(c3ccc(Br)cc3F)CC2)c2cc(F)ccc21

>  <gnina_score>  (377) 
6.33

>  <inspiration_score>  (377) 
None

>  <energy_score>  (377) 
-4.356074

>  <distance_score>  (377) 
1.018245

>  <gnina_score_min>  (377) 
6.255

>  <inchikey>  (377) 
MUEUJEUIZWQPNE-UHFFFAOYSA-N

>  <exports>  (377) 
['/opt/xchem-fragalysis-2/maxwin/BulkDock/OUTPUTS/openbind_a71ev2a_c2_elabs_1LOUU54.sdf', '/opt/xchem-fragalysis-2/maxwin/BulkDock/OUTPUTS/openbind_a71ev2a_c2_elabs_1LSYIDY.sdf']

>  <name>  (377) 
P570685

>  <ref_pdb>  (377) 
A2339a

>  <subsites>  (377) 
None

>  <HIPPO Pose ID>  (377) 
570685

>  <ref_mols>  (377) 
A2339a

>  <HIPPO Compound ID>  (377) 
411941

>  <tags>  (377) 
openbind_a71ev2a_c2_elabs,syndirella_product,openbind_a71ev2a_c2_elabs_scored,BulkDock Fragalysis export,openbind_a71ev2a_c2_elabs_scored_top80percent,openbind_a71ev2a_c2_elabs_scored_6plus,openbind_a71ev2a_c2_elabs_scored_top80percent_despaghettified,syndirella_placed

>  <smina_score_min>  (377) 
-5.399

$$$$
P570686
     RDKit          3D

 25 28  0  0  0  0  0  0  0  0999 V2000
    9.2400    9.1071   23.5399 C   0  0  0  0  0  0  0  0  0  0  0  0
    8.6658   10.2950   24.1355 N   0  0  0  0  0  0  0  0  0  0  0  0
    9.1849   11.4955   23.8079 N   0  0  0  0  0  0  0  0  0  0  0  0
    8.5723   12.3414   24.6606 C   0  0  0  0  0  0  0  0  0  0  0  0
    8.8107   13.7666   24.6792 C   0  0  0  0  0  0  0  0  0  0  0  0
    8.4595   14.4652   25.5308 O   0  0  0  0  0  0  0  0  0  0  0  0
    9.4761   14.0820   23.3728 N   0  0  0  0  0  0  0  0  0  0  0  0
    9.7751   15.3131   22.7764 C   0  0  2  0  0  0  0  0  0  0  0  0
    8.5472   15.7396   22.0071 C   0  0  0  0  0  0  0  0  0  0  0  0
    8.8258   16.9920   21.2447 C   0  0  0  0  0  0  0  0  0  0  0  0
    9.9517   16.7441   20.3243 C   0  0  0  0  0  0  0  0  0  0  0  0
    9.9251   17.3119   19.2387 O   0  0  0  0  0  0  0  0  0  0  0  0
   10.9639   15.8925   20.7743 N   0  0  0  0  0  0  0  0  0  0  0  0
   11.9655   15.4645   19.8715 C   0  0  0  0  0  0  0  0  0  0  0  0
   11.7583   14.1359   19.2603 C   0  0  0  0  0  0  0  0  0  0  0  0
   11.7333   15.3179   18.3966 C   0  0  0  0  0  0  0  0  0  0  0  0
   11.0204   15.2140   21.9797 C   0  0  0  0  0  0  0  0  0  0  0  0
   11.9897   14.5746   22.3947 O   0  0  0  0  0  0  0  0  0  0  0  0
    7.5517   11.7371   25.3859 C   0  0  0  0  0  0  0  0  0  0  0  0
    6.5815   12.2066   26.2817 C   0  0  0  0  0  0  0  0  0  0  0  0
    5.7245   11.2882   26.8488 C   0  0  0  0  0  0  0  0  0  0  0  0
    4.8164   11.7225   27.7264 F   0  0  0  0  0  0  0  0  0  0  0  0
    5.8136    9.9433   26.5411 C   0  0  0  0  0  0  0  0  0  0  0  0
    6.7700    9.4928   25.6257 C   0  0  0  0  0  0  0  0  0  0  0  0
    7.6349   10.4021   25.0404 C   0  0  0  0  0  0  0  0  0  0  0  0
  1  2  1  0
  2  3  1  0
  3  4  2  0
  4  5  1  0
  5  6  2  0
  5  7  1  0
  8  7  1  6
  8  9  1  0
  9 10  1  0
 10 11  1  0
 11 12  2  0
 11 13  1  0
 13 14  1  0
 14 15  1  0
 15 16  1  0
 13 17  1  0
 17 18  2  0
  4 19  1  0
 19 20  2  0
 20 21  1  0
 21 22  1  0
 21 23  2  0
 23 24  1  0
 24 25  2  0
 25  2  1  0
 17  8  1  0
 25 19  1  0
 16 14  1  0
M  END
>  <alias>  (378) 
None

>  <rmsd(smina/fragmenstein)>  (378) 
0.509

>  <smiles>  (378) 
Cn1nc(C(=O)N[C@@H]2CCC(=O)N(C3CC3)C2=O)c2cc(F)ccc21

>  <gnina_score>  (378) 
5.878

>  <inspiration_score>  (378) 
None

>  <energy_score>  (378) 
-7.287813

>  <distance_score>  (378) 
1.405343

>  <gnina_score_min>  (378) 
5.757

>  <inchikey>  (378) 
LUQFENDDRBUUBD-GFCCVEGCSA-N

>  <exports>  (378) 
['/opt/xchem-fragalysis-2/maxwin/BulkDock/OUTPUTS/openbind_a71ev2a_c2_elabs_1LOUU54.sdf', '/opt/xchem-fragalysis-2/maxwin/BulkDock/OUTPUTS/openbind_a71ev2a_c2_elabs_1LSYIDY.sdf']

>  <name>  (378) 
P570686

>  <ref_pdb>  (378) 
A2339a

>  <subsites>  (378) 
None

>  <HIPPO Pose ID>  (378) 
570686

>  <ref_mols>  (378) 
A2339a

>  <HIPPO Compound ID>  (378) 
411943

>  <tags>  (378) 
openbind_a71ev2a_c2_elabs,syndirella_product,openbind_a71ev2a_c2_elabs_scored,BulkDock Fragalysis export,openbind_a71ev2a_c2_elabs_scored_top80percent,openbind_a71ev2a_c2_elabs_scored_top80percent_despaghettified,syndirella_placed

>  <smina_score_min>  (378) 
-5.891

$$$$
P570687
     RDKit          3D

 25 29  0  0  0  0  0  0  0  0999 V2000
    9.5740    8.7999   23.0844 C   0  0  0  0  0  0  0  0  0  0  0  0
    9.2613   10.0682   23.7002 N   0  0  0  0  0  0  0  0  0  0  0  0
    9.9692   11.1569   23.3317 N   0  0  0  0  0  0  0  0  0  0  0  0
    9.5287   12.1225   24.1501 C   0  0  0  0  0  0  0  0  0  0  0  0
    9.8107   13.5316   23.9806 C   0  0  0  0  0  0  0  0  0  0  0  0
   10.1466   14.2557   24.8262 O   0  0  0  0  0  0  0  0  0  0  0  0
    9.4672   13.8055   22.5247 N   0  0  0  0  0  0  0  0  0  0  0  0
    9.3707   15.0019   21.8309 C   0  0  0  0  0  0  0  0  0  0  0  0
    7.9072   15.4988   22.2413 C   0  0  0  0  0  0  0  0  0  0  0  0
    6.7945   14.9248   21.6651 C   0  0  0  0  0  0  0  0  0  0  0  0
    5.4116   15.1548   22.6342 S   0  0  0  0  0  0  0  0  0  0  0  0
    6.3806   15.9451   23.7934 C   0  0  0  0  0  0  0  0  0  0  0  0
    5.8575   16.5228   25.1526 C   0  0  0  0  0  0  0  0  0  0  0  0
    5.3207   15.5774   26.1982 C   0  0  0  0  0  0  0  0  0  0  0  0
    4.3987   16.5507   25.5259 C   0  0  0  0  0  0  0  0  0  0  0  0
    7.6659   15.9750   23.5243 N   0  0  0  0  0  0  0  0  0  0  0  0
    9.8832   15.0958   20.4207 C   0  0  0  0  0  0  0  0  0  0  0  0
   10.5044   15.9125   21.5066 C   0  0  0  0  0  0  0  0  0  0  0  0
    8.3806   11.7061   24.8749 C   0  0  0  0  0  0  0  0  0  0  0  0
    7.4192   12.3493   25.6794 C   0  0  0  0  0  0  0  0  0  0  0  0
    6.4207   11.5804   26.2658 C   0  0  0  0  0  0  0  0  0  0  0  0
    5.5389   12.1665   27.0862 F   0  0  0  0  0  0  0  0  0  0  0  0
    6.3546   10.2119   26.0579 C   0  0  0  0  0  0  0  0  0  0  0  0
    7.2793    9.5833   25.2191 C   0  0  0  0  0  0  0  0  0  0  0  0
    8.2644   10.3536   24.6047 C   0  0  0  0  0  0  0  0  0  0  0  0
  1  2  1  0
  2  3  1  0
  3  4  2  0
  4  5  1  0
  5  6  2  0
  5  7  1  0
  7  8  1  0
  8  9  1  0
  9 10  2  0
 10 11  1  0
 11 12  1  0
 12 13  1  0
 13 14  1  0
 14 15  1  0
 12 16  2  0
  8 17  1  0
 17 18  1  0
  4 19  1  0
 19 20  2  0
 20 21  1  0
 21 22  1  0
 21 23  2  0
 23 24  1  0
 24 25  2  0
 25  2  1  0
 18  8  1  0
 25 19  1  0
 16  9  1  0
 15 13  1  0
M  END
>  <alias>  (379) 
None

>  <rmsd(smina/fragmenstein)>  (379) 
0.31

>  <smiles>  (379) 
Cn1nc(C(=O)NC2(c3csc(C4CC4)n3)CC2)c2cc(F)ccc21

>  <gnina_score>  (379) 
6.365

>  <inspiration_score>  (379) 
None

>  <energy_score>  (379) 
-7.535606

>  <distance_score>  (379) 
0.837737

>  <gnina_score_min>  (379) 
6.274

>  <inchikey>  (379) 
COJLZJFISMBDHV-UHFFFAOYSA-N

>  <exports>  (379) 
['/opt/xchem-fragalysis-2/maxwin/BulkDock/OUTPUTS/openbind_a71ev2a_c2_elabs_1LOUU54.sdf', '/opt/xchem-fragalysis-2/maxwin/BulkDock/OUTPUTS/openbind_a71ev2a_c2_elabs_1LSYIDY.sdf']

>  <name>  (379) 
P570687

>  <ref_pdb>  (379) 
A2339a

>  <subsites>  (379) 
None

>  <HIPPO Pose ID>  (379) 
570687

>  <ref_mols>  (379) 
A2339a

>  <HIPPO Compound ID>  (379) 
411949

>  <tags>  (379) 
openbind_a71ev2a_c2_elabs,syndirella_product,openbind_a71ev2a_c2_elabs_scored,BulkDock Fragalysis export,openbind_a71ev2a_c2_elabs_scored_top80percent,openbind_a71ev2a_c2_elabs_scored_6plus,openbind_a71ev2a_c2_elabs_scored_top80percent_despaghettified,syndirella_placed

>  <smina_score_min>  (379) 
-6.642

$$$$
P570690
     RDKit          3D

 25 28  0  0  0  0  0  0  0  0999 V2000
    9.5132    8.8728   23.1752 C   0  0  0  0  0  0  0  0  0  0  0  0
    9.1605   10.1237   23.8076 N   0  0  0  0  0  0  0  0  0  0  0  0
    9.8395   11.2366   23.4569 N   0  0  0  0  0  0  0  0  0  0  0  0
    9.3671   12.1791   24.2869 C   0  0  0  0  0  0  0  0  0  0  0  0
    9.5780   13.5942   24.0889 C   0  0  0  0  0  0  0  0  0  0  0  0
    9.9654   14.3555   24.8774 O   0  0  0  0  0  0  0  0  0  0  0  0
    9.0773   13.8113   22.6703 N   0  0  0  0  0  0  0  0  0  0  0  0
    8.8584   14.9823   21.9605 C   0  0  0  0  0  0  0  0  0  0  0  0
    7.4161   15.3743   22.3303 C   0  0  0  0  0  0  0  0  0  0  0  0
    6.3056   14.8876   21.6244 C   0  0  0  0  0  0  0  0  0  0  0  0
    4.9823   15.0688   22.0519 C   0  0  0  0  0  0  0  0  0  0  0  0
    4.7338   15.6815   23.2676 C   0  0  0  0  0  0  0  0  0  0  0  0
    3.4656   15.8098   23.6853 F   0  0  0  0  0  0  0  0  0  0  0  0
    5.7957   16.0798   24.0615 C   0  0  0  0  0  0  0  0  0  0  0  0
    5.5298   16.6466   25.6667 Cl  0  0  0  0  0  0  0  0  0  0  0  0
    7.1078   15.9189   23.5971 C   0  0  0  0  0  0  0  0  0  0  0  0
    9.9344   15.9749   21.6268 C   0  0  0  0  0  0  0  0  0  0  0  0
    9.4631   15.0329   20.5774 C   0  0  0  0  0  0  0  0  0  0  0  0
    8.2352   11.7252   25.0063 C   0  0  0  0  0  0  0  0  0  0  0  0
    7.2557   12.3384   25.8123 C   0  0  0  0  0  0  0  0  0  0  0  0
    6.2739   11.5393   26.3818 C   0  0  0  0  0  0  0  0  0  0  0  0
    5.3759   12.0968   27.2028 F   0  0  0  0  0  0  0  0  0  0  0  0
    6.2395   10.1731   26.1536 C   0  0  0  0  0  0  0  0  0  0  0  0
    7.1800    9.5773   25.3079 C   0  0  0  0  0  0  0  0  0  0  0  0
    8.1532   10.3747   24.7121 C   0  0  0  0  0  0  0  0  0  0  0  0
  1  2  1  0
  2  3  1  0
  3  4  2  0
  4  5  1  0
  5  6  2  0
  5  7  1  0
  7  8  1  0
  8  9  1  0
  9 10  2  0
 10 11  1  0
 11 12  2  0
 12 13  1  0
 12 14  1  0
 14 15  1  0
 14 16  2  0
  8 17  1  0
 17 18  1  0
  4 19  1  0
 19 20  2  0
 20 21  1  0
 21 22  1  0
 21 23  2  0
 23 24  1  0
 24 25  2  0
 25  2  1  0
 18  8  1  0
 25 19  1  0
 16  9  1  0
M  END
>  <alias>  (380) 
None

>  <rmsd(smina/fragmenstein)>  (380) 
0.475

>  <smiles>  (380) 
Cn1nc(C(=O)NC2(c3ccc(F)c(Cl)c3)CC2)c2cc(F)ccc21

>  <gnina_score>  (380) 
5.93

>  <inspiration_score>  (380) 
None

>  <energy_score>  (380) 
-19.208088

>  <distance_score>  (380) 
1.066229

>  <gnina_score_min>  (380) 
6.013

>  <inchikey>  (380) 
KCZXDRXFIHNRFA-UHFFFAOYSA-N

>  <exports>  (380) 
['/opt/xchem-fragalysis-2/maxwin/BulkDock/OUTPUTS/openbind_a71ev2a_c2_elabs_1LOUU54.sdf', '/opt/xchem-fragalysis-2/maxwin/BulkDock/OUTPUTS/openbind_a71ev2a_c2_elabs_1LSYIDY.sdf']

>  <name>  (380) 
P570690

>  <ref_pdb>  (380) 
A2339a

>  <subsites>  (380) 
None

>  <HIPPO Pose ID>  (380) 
570690

>  <ref_mols>  (380) 
A2339a

>  <HIPPO Compound ID>  (380) 
411956

>  <tags>  (380) 
openbind_a71ev2a_c2_elabs,syndirella_product,openbind_a71ev2a_c2_elabs_scored,BulkDock Fragalysis export,openbind_a71ev2a_c2_elabs_scored_top80percent,openbind_a71ev2a_c2_elabs_scored_6plus,openbind_a71ev2a_c2_elabs_scored_top80percent_despaghettified,syndirella_placed

>  <smina_score_min>  (380) 
-6.979

$$$$
P570691
     RDKit          3D

 25 28  0  0  0  0  0  0  0  0999 V2000
    8.6779    8.6711   23.7997 C   0  0  0  0  0  0  0  0  0  0  0  0
    8.1728    9.9258   24.2968 N   0  0  0  0  0  0  0  0  0  0  0  0
    8.8176   11.0151   23.8879 N   0  0  0  0  0  0  0  0  0  0  0  0
    8.3154   11.9851   24.6673 C   0  0  0  0  0  0  0  0  0  0  0  0
    8.9128   13.2785   24.6807 C   0  0  0  0  0  0  0  0  0  0  0  0
    8.6276   14.1429   25.3999 O   0  0  0  0  0  0  0  0  0  0  0  0
   10.0122   13.1839   23.6463 N   0  0  0  0  0  0  0  0  0  0  0  0
   10.9036   14.1140   23.2175 C   0  0  0  0  0  0  0  0  0  0  0  0
   10.4427   14.8051   22.0063 C   0  0  0  0  0  0  0  0  0  0  0  0
   11.1818   14.6418   20.8580 C   0  0  0  0  0  0  0  0  0  0  0  0
   10.8493   15.3609   19.7546 C   0  0  0  0  0  0  0  0  0  0  0  0
   11.7627   14.9657   18.2246 Br  0  0  0  0  0  0  0  0  0  0  0  0
    9.8449   16.2875   19.8344 C   0  0  0  0  0  0  0  0  0  0  0  0
    9.0151   16.3936   20.8801 N   0  0  0  0  0  0  0  0  0  0  0  0
    9.3084   15.6011   21.9059 C   0  0  0  0  0  0  0  0  0  0  0  0
    8.3243   15.6031   22.8333 O   0  0  0  0  0  0  0  0  0  0  0  0
   12.3650   14.0235   23.4956 C   0  0  0  0  0  0  0  0  0  0  0  0
   11.4870   14.9138   24.3214 C   0  0  0  0  0  0  0  0  0  0  0  0
    7.2790   11.5717   25.4750 C   0  0  0  0  0  0  0  0  0  0  0  0
    6.4660   12.2188   26.4116 C   0  0  0  0  0  0  0  0  0  0  0  0
    5.5633   11.4524   27.1105 C   0  0  0  0  0  0  0  0  0  0  0  0
    4.8023   12.0430   28.0340 F   0  0  0  0  0  0  0  0  0  0  0  0
    5.4350   10.0995   26.8638 C   0  0  0  0  0  0  0  0  0  0  0  0
    6.2126    9.4803   25.8806 C   0  0  0  0  0  0  0  0  0  0  0  0
    7.1872   10.2119   25.2187 C   0  0  0  0  0  0  0  0  0  0  0  0
  1  2  1  0
  2  3  1  0
  3  4  2  0
  4  5  1  0
  5  6  2  0
  5  7  1  0
  7  8  1  0
  8  9  1  0
  9 10  2  0
 10 11  1  0
 11 12  1  0
 11 13  2  0
 13 14  1  0
 14 15  2  0
 15 16  1  0
  8 17  1  0
 17 18  1  0
  4 19  1  0
 19 20  2  0
 20 21  1  0
 21 22  1  0
 21 23  2  0
 23 24  1  0
 24 25  2  0
 25  2  1  0
 18  8  1  0
 25 19  1  0
 15  9  1  0
M  END
>  <alias>  (381) 
None

>  <rmsd(smina/fragmenstein)>  (381) 
1.105

>  <smiles>  (381) 
Cn1nc(C(=O)NC2(c3cc(Br)cnc3O)CC2)c2cc(F)ccc21

>  <gnina_score>  (381) 
6.182

>  <inspiration_score>  (381) 
None

>  <energy_score>  (381) 
-12.046998

>  <distance_score>  (381) 
1.82854

>  <gnina_score_min>  (381) 
5.709

>  <inchikey>  (381) 
GEJKFDFHBOYASS-UHFFFAOYSA-N

>  <exports>  (381) 
['/opt/xchem-fragalysis-2/maxwin/BulkDock/OUTPUTS/openbind_a71ev2a_c2_elabs_1LOUU54.sdf', '/opt/xchem-fragalysis-2/maxwin/BulkDock/OUTPUTS/openbind_a71ev2a_c2_elabs_1LSYIDY.sdf']

>  <name>  (381) 
P570691

>  <ref_pdb>  (381) 
A2339a

>  <subsites>  (381) 
None

>  <HIPPO Pose ID>  (381) 
570691

>  <ref_mols>  (381) 
A2339a

>  <HIPPO Compound ID>  (381) 
411957

>  <tags>  (381) 
openbind_a71ev2a_c2_elabs,syndirella_product,openbind_a71ev2a_c2_elabs_scored,BulkDock Fragalysis export,openbind_a71ev2a_c2_elabs_scored_top80percent,openbind_a71ev2a_c2_elabs_scored_top80percent_despaghettified,syndirella_placed

>  <smina_score_min>  (381) 
-6.143

$$$$
P570695
     RDKit          3D

 26 30  0  0  0  0  0  0  0  0999 V2000
    9.1038    9.2046   23.4553 C   0  0  0  0  0  0  0  0  0  0  0  0
    8.5501   10.3633   24.1253 N   0  0  0  0  0  0  0  0  0  0  0  0
    9.1548   11.5536   23.9523 N   0  0  0  0  0  0  0  0  0  0  0  0
    8.4934   12.3659   24.8032 C   0  0  0  0  0  0  0  0  0  0  0  0
    9.0024   13.6656   25.1911 C   0  0  0  0  0  0  0  0  0  0  0  0
    8.4461   14.4018   25.8883 O   0  0  0  0  0  0  0  0  0  0  0  0
   10.3218   13.7971   24.4884 N   0  0  0  0  0  0  0  0  0  0  0  0
   11.2001   14.8736   24.4046 C   0  0  0  0  0  0  0  0  0  0  0  0
   11.5226   15.0416   23.0004 C   0  0  0  0  0  0  0  0  0  0  0  0
   12.7223   14.7688   22.5247 N   0  0  0  0  0  0  0  0  0  0  0  0
   12.6667   14.7951   21.1786 N   0  0  0  0  0  0  0  0  0  0  0  0
   11.4204   15.0093   20.8811 C   0  0  0  0  0  0  0  0  0  0  0  0
   10.7995   14.6587   19.5755 C   0  0  0  0  0  0  0  0  0  0  0  0
   10.2714   15.7474   18.7339 C   0  0  0  0  0  0  0  0  0  0  0  0
   11.4718   14.9479   18.2989 C   0  0  0  0  0  0  0  0  0  0  0  0
   10.6890   15.3389   21.9719 N   0  0  0  0  0  0  0  0  0  0  0  0
    9.2518   15.6962   21.8361 C   0  0  0  0  0  0  0  0  0  0  0  0
    8.0772   15.6349   22.7647 C   0  0  0  0  0  0  0  0  0  0  0  0
    8.2390   14.5652   21.7469 C   0  0  0  0  0  0  0  0  0  0  0  0
    7.3827   11.7692   25.3767 C   0  0  0  0  0  0  0  0  0  0  0  0
    6.4050   12.2062   26.2770 C   0  0  0  0  0  0  0  0  0  0  0  0
    5.5872   11.2561   26.8470 C   0  0  0  0  0  0  0  0  0  0  0  0
    4.6888   11.6544   27.7513 F   0  0  0  0  0  0  0  0  0  0  0  0
    5.7216    9.9147   26.5364 C   0  0  0  0  0  0  0  0  0  0  0  0
    6.6804    9.4986   25.6082 C   0  0  0  0  0  0  0  0  0  0  0  0
    7.5077   10.4389   25.0203 C   0  0  0  0  0  0  0  0  0  0  0  0
  1  2  1  0
  2  3  1  0
  3  4  2  0
  4  5  1  0
  5  6  2  0
  5  7  1  0
  7  8  1  0
  8  9  1  0
  9 10  2  0
 10 11  1  0
 11 12  2  0
 12 13  1  0
 13 14  1  0
 14 15  1  0
 12 16  1  0
 16 17  1  0
 17 18  1  0
 18 19  1  0
  4 20  1  0
 20 21  2  0
 21 22  1  0
 22 23  1  0
 22 24  2  0
 24 25  1  0
 25 26  2  0
 26  2  1  0
 16  9  1  0
 19 17  1  0
 26 20  1  0
 15 13  1  0
M  END
>  <alias>  (382) 
None

>  <rmsd(smina/fragmenstein)>  (382) 
0.451

>  <smiles>  (382) 
Cn1nc(C(=O)NCc2nnc(C3CC3)n2C2CC2)c2cc(F)ccc21

>  <gnina_score>  (382) 
6.044

>  <inspiration_score>  (382) 
None

>  <energy_score>  (382) 
-1.866687

>  <distance_score>  (382) 
1.648455

>  <gnina_score_min>  (382) 
5.898

>  <inchikey>  (382) 
GKIXUCZRISKZBI-UHFFFAOYSA-N

>  <exports>  (382) 
['/opt/xchem-fragalysis-2/maxwin/BulkDock/OUTPUTS/openbind_a71ev2a_c2_elabs_1LOUU54.sdf', '/opt/xchem-fragalysis-2/maxwin/BulkDock/OUTPUTS/openbind_a71ev2a_c2_elabs_1LSYIDY.sdf']

>  <name>  (382) 
P570695

>  <ref_pdb>  (382) 
A2339a

>  <subsites>  (382) 
None

>  <HIPPO Pose ID>  (382) 
570695

>  <ref_mols>  (382) 
A2339a

>  <HIPPO Compound ID>  (382) 
411968

>  <tags>  (382) 
openbind_a71ev2a_c2_elabs,syndirella_product,openbind_a71ev2a_c2_elabs_scored,BulkDock Fragalysis export,openbind_a71ev2a_c2_elabs_scored_top80percent,openbind_a71ev2a_c2_elabs_scored_top80percent_despaghettified,syndirella_placed

>  <smina_score_min>  (382) 
-6.135

$$$$
P570696
     RDKit          3D

 26 29  0  0  0  0  0  0  0  0999 V2000
    9.4474    8.8790   23.1826 C   0  0  0  0  0  0  0  0  0  0  0  0
    9.0794   10.1482   23.7676 N   0  0  0  0  0  0  0  0  0  0  0  0
    9.7411   11.2521   23.3694 N   0  0  0  0  0  0  0  0  0  0  0  0
    9.2623   12.2215   24.1649 C   0  0  0  0  0  0  0  0  0  0  0  0
    9.6303   13.6160   24.0014 C   0  0  0  0  0  0  0  0  0  0  0  0
    9.7932   14.3523   24.8894 O   0  0  0  0  0  0  0  0  0  0  0  0
    9.6382   13.8641   22.4926 N   0  0  0  0  0  0  0  0  0  0  0  0
    9.7503   15.0552   21.7674 C   0  0  0  0  0  0  0  0  0  0  0  0
    8.4270   15.8148   21.6474 C   0  0  0  0  0  0  0  0  0  0  0  0
    7.2665   15.4541   22.5826 C   0  0  0  0  0  0  0  0  0  0  0  0
    7.2243   15.8126   23.9367 C   0  0  0  0  0  0  0  0  0  0  0  0
    6.0579   15.6895   24.7033 C   0  0  0  0  0  0  0  0  0  0  0  0
    4.9092   15.1627   24.1330 C   0  0  0  0  0  0  0  0  0  0  0  0
    3.3377   14.9851   25.1644 Br  0  0  0  0  0  0  0  0  0  0  0  0
    4.9344   14.7317   22.8174 C   0  0  0  0  0  0  0  0  0  0  0  0
    6.1091   14.8497   22.0763 C   0  0  0  0  0  0  0  0  0  0  0  0
    6.1061   14.3320   20.8440 F   0  0  0  0  0  0  0  0  0  0  0  0
   10.5877   15.0161   20.4924 C   0  0  0  0  0  0  0  0  0  0  0  0
   11.0827   15.7663   21.6743 C   0  0  0  0  0  0  0  0  0  0  0  0
    8.1739   11.7772   24.9458 C   0  0  0  0  0  0  0  0  0  0  0  0
    7.2432   12.3884   25.8055 C   0  0  0  0  0  0  0  0  0  0  0  0
    6.2801   11.5968   26.4166 C   0  0  0  0  0  0  0  0  0  0  0  0
    5.4184   12.1624   27.2705 F   0  0  0  0  0  0  0  0  0  0  0  0
    6.2306   10.2298   26.1982 C   0  0  0  0  0  0  0  0  0  0  0  0
    7.1440    9.6232   25.3315 C   0  0  0  0  0  0  0  0  0  0  0  0
    8.0930   10.4165   24.6892 C   0  0  0  0  0  0  0  0  0  0  0  0
  1  2  1  0
  2  3  1  0
  3  4  2  0
  4  5  1  0
  5  6  2  0
  5  7  1  0
  7  8  1  0
  8  9  1  0
  9 10  1  0
 10 11  2  0
 11 12  1  0
 12 13  2  0
 13 14  1  0
 13 15  1  0
 15 16  2  0
 16 17  1  0
  8 18  1  0
 18 19  1  0
  4 20  1  0
 20 21  2  0
 21 22  1  0
 22 23  1  0
 22 24  2  0
 24 25  1  0
 25 26  2  0
 26  2  1  0
 19  8  1  0
 26 20  1  0
 16 10  1  0
M  END
>  <alias>  (383) 
None

>  <rmsd(smina/fragmenstein)>  (383) 
0.561

>  <smiles>  (383) 
Cn1nc(C(=O)NC2(Cc3ccc(Br)cc3F)CC2)c2cc(F)ccc21

>  <gnina_score>  (383) 
6.344

>  <inspiration_score>  (383) 
None

>  <energy_score>  (383) 
-33.535225

>  <distance_score>  (383) 
0.701898

>  <gnina_score_min>  (383) 
6.407

>  <inchikey>  (383) 
CQBOMSLMCFCUKK-UHFFFAOYSA-N

>  <exports>  (383) 
['/opt/xchem-fragalysis-2/maxwin/BulkDock/OUTPUTS/openbind_a71ev2a_c2_elabs_1LOUU54.sdf', '/opt/xchem-fragalysis-2/maxwin/BulkDock/OUTPUTS/openbind_a71ev2a_c2_elabs_1LSYIDY.sdf']

>  <name>  (383) 
P570696

>  <ref_pdb>  (383) 
A2339a

>  <subsites>  (383) 
None

>  <HIPPO Pose ID>  (383) 
570696

>  <ref_mols>  (383) 
A2339a

>  <HIPPO Compound ID>  (383) 
411971

>  <tags>  (383) 
openbind_a71ev2a_c2_elabs,syndirella_product,openbind_a71ev2a_c2_elabs_scored,BulkDock Fragalysis export,openbind_a71ev2a_c2_elabs_scored_top80percent,openbind_a71ev2a_c2_elabs_scored_6plus,openbind_a71ev2a_c2_elabs_scored_top80percent_despaghettified,syndirella_placed

>  <smina_score_min>  (383) 
-7.446

$$$$
P570698
     RDKit          3D

 26 29  0  0  0  0  0  0  0  0999 V2000
    9.5513    9.2502   23.1854 C   0  0  0  0  0  0  0  0  0  0  0  0
    9.0571   10.4397   23.8483 N   0  0  0  0  0  0  0  0  0  0  0  0
    9.6080   11.6452   23.5622 N   0  0  0  0  0  0  0  0  0  0  0  0
    9.0396   12.4758   24.4543 C   0  0  0  0  0  0  0  0  0  0  0  0
    9.1714   13.9254   24.4690 C   0  0  0  0  0  0  0  0  0  0  0  0
    9.5351   14.5467   25.3822 O   0  0  0  0  0  0  0  0  0  0  0  0
    8.6438   14.3768   23.1130 N   0  0  0  0  0  0  0  0  0  0  0  0
    8.3643   15.6589   22.6259 C   0  0  2  0  0  0  0  0  0  0  0  0
    7.6828   15.6065   21.3307 C   0  0  0  0  0  0  0  0  0  0  0  0
    8.9943   16.3416   21.3929 C   0  0  1  0  0  0  0  0  0  0  0  0
    8.9243   17.8182   21.0876 C   0  0  0  0  0  0  0  0  0  0  0  0
   10.2219   15.7141   20.8569 C   0  0  0  0  0  0  0  0  0  0  0  0
   10.3417   15.4575   19.4878 C   0  0  0  0  0  0  0  0  0  0  0  0
   11.4024   14.7246   19.0215 C   0  0  0  0  0  0  0  0  0  0  0  0
   12.2934   14.2240   19.9483 C   0  0  0  0  0  0  0  0  0  0  0  0
   13.0879   13.2417   19.5562 F   0  0  0  0  0  0  0  0  0  0  0  0
   12.2779   14.5642   21.2833 C   0  0  0  0  0  0  0  0  0  0  0  0
   11.2537   15.3442   21.7226 C   0  0  0  0  0  0  0  0  0  0  0  0
   11.2023   15.6497   23.0262 F   0  0  0  0  0  0  0  0  0  0  0  0
    7.9795   11.8537   25.1448 C   0  0  0  0  0  0  0  0  0  0  0  0
    6.9767   12.3082   26.0173 C   0  0  0  0  0  0  0  0  0  0  0  0
    6.0866   11.3801   26.5311 C   0  0  0  0  0  0  0  0  0  0  0  0
    5.1505   11.7976   27.3907 F   0  0  0  0  0  0  0  0  0  0  0  0
    6.1768   10.0357   26.2014 C   0  0  0  0  0  0  0  0  0  0  0  0
    7.1608    9.5892   25.3118 C   0  0  0  0  0  0  0  0  0  0  0  0
    8.0351   10.5247   24.7658 C   0  0  0  0  0  0  0  0  0  0  0  0
  1  2  1  0
  2  3  1  0
  3  4  2  0
  4  5  1  0
  5  6  2  0
  5  7  1  0
  8  7  1  6
  8  9  1  0
  9 10  1  0
 10 11  1  1
 10 12  1  0
 12 13  2  0
 13 14  1  0
 14 15  2  0
 15 16  1  0
 15 17  1  0
 17 18  2  0
 18 19  1  0
  4 20  1  0
 20 21  2  0
 21 22  1  0
 22 23  1  0
 22 24  2  0
 24 25  1  0
 25 26  2  0
 26  2  1  0
 10  8  1  0
 18 12  1  0
 26 20  1  0
M  END
>  <alias>  (384) 
None

>  <rmsd(smina/fragmenstein)>  (384) 
0.254

>  <smiles>  (384) 
Cn1nc(C(=O)N[C@@H]2C[C@]2(C)c2ccc(F)cc2F)c2cc(F)ccc21

>  <gnina_score>  (384) 
5.864

>  <inspiration_score>  (384) 
None

>  <energy_score>  (384) 
-6.300292

>  <distance_score>  (384) 
1.621537

>  <gnina_score_min>  (384) 
5.884

>  <inchikey>  (384) 
VOBLWCSWOYASJQ-VQIMIIECSA-N

>  <exports>  (384) 
['/opt/xchem-fragalysis-2/maxwin/BulkDock/OUTPUTS/openbind_a71ev2a_c2_elabs_1LOUU54.sdf', '/opt/xchem-fragalysis-2/maxwin/BulkDock/OUTPUTS/openbind_a71ev2a_c2_elabs_1LSYIDY.sdf']

>  <name>  (384) 
P570698

>  <ref_pdb>  (384) 
A2339a

>  <subsites>  (384) 
None

>  <HIPPO Pose ID>  (384) 
570698

>  <ref_mols>  (384) 
A2339a

>  <HIPPO Compound ID>  (384) 
411974

>  <tags>  (384) 
openbind_a71ev2a_c2_elabs,syndirella_product,openbind_a71ev2a_c2_elabs_scored,BulkDock Fragalysis export,openbind_a71ev2a_c2_elabs_scored_top80percent,openbind_a71ev2a_c2_elabs_scored_top80percent_despaghettified,syndirella_placed

>  <smina_score_min>  (384) 
-5.14

$$$$
P570700
     RDKit          3D

 26 29  0  0  0  0  0  0  0  0999 V2000
    2.7750   14.3610   21.5654 C   0  0  0  0  0  0  0  0  0  0  0  0
    4.1047   14.5254   21.0881 O   0  0  0  0  0  0  0  0  0  0  0  0
    4.9969   15.0715   21.9696 C   0  0  0  0  0  0  0  0  0  0  0  0
    4.6805   15.7657   23.1277 C   0  0  0  0  0  0  0  0  0  0  0  0
    5.7113   16.1888   23.9583 C   0  0  0  0  0  0  0  0  0  0  0  0
    7.0421   15.9514   23.6022 C   0  0  0  0  0  0  0  0  0  0  0  0
    7.9579   16.1395   24.5654 F   0  0  0  0  0  0  0  0  0  0  0  0
    7.4220   15.3842   22.3726 C   0  0  0  0  0  0  0  0  0  0  0  0
    8.8663   14.9914   22.0325 C   0  0  0  0  0  0  0  0  0  0  0  0
    9.0757   13.7988   22.7075 N   0  0  0  0  0  0  0  0  0  0  0  0
    9.7275   13.5255   24.0541 C   0  0  0  0  0  0  0  0  0  0  0  0
   10.2683   14.2442   24.7907 O   0  0  0  0  0  0  0  0  0  0  0  0
    9.4243   12.1292   24.2614 C   0  0  0  0  0  0  0  0  0  0  0  0
    9.8649   11.1572   23.4499 N   0  0  0  0  0  0  0  0  0  0  0  0
    9.1404   10.0792   23.8105 N   0  0  0  0  0  0  0  0  0  0  0  0
    9.4463    8.8139   23.1863 C   0  0  0  0  0  0  0  0  0  0  0  0
    8.1441   10.3767   24.7127 C   0  0  0  0  0  0  0  0  0  0  0  0
    7.1438    9.6232   25.3229 C   0  0  0  0  0  0  0  0  0  0  0  0
    6.2264   10.2654   26.1592 C   0  0  0  0  0  0  0  0  0  0  0  0
    6.3056   11.6336   26.3613 C   0  0  0  0  0  0  0  0  0  0  0  0
    5.4270   12.2338   27.1742 F   0  0  0  0  0  0  0  0  0  0  0  0
    7.3117   12.3902   25.7741 C   0  0  0  0  0  0  0  0  0  0  0  0
    8.2705   11.7304   24.9800 C   0  0  0  0  0  0  0  0  0  0  0  0
    9.9508   15.9679   21.6781 C   0  0  0  0  0  0  0  0  0  0  0  0
    9.4584   15.0334   20.6355 C   0  0  0  0  0  0  0  0  0  0  0  0
    6.3447   14.8882   21.6239 C   0  0  0  0  0  0  0  0  0  0  0  0
  1  2  1  0
  2  3  1  0
  3  4  2  0
  4  5  1  0
  5  6  2  0
  6  7  1  0
  6  8  1  0
  8  9  1  0
  9 10  1  0
 10 11  1  0
 11 12  2  0
 11 13  1  0
 13 14  2  0
 14 15  1  0
 15 16  1  0
 15 17  1  0
 17 18  2  0
 18 19  1  0
 19 20  2  0
 20 21  1  0
 20 22  1  0
 22 23  2  0
  9 24  1  0
 24 25  1  0
  8 26  2  0
 26  3  1  0
 25  9  1  0
 23 13  1  0
 23 17  1  0
M  END
>  <alias>  (385) 
None

>  <rmsd(smina/fragmenstein)>  (385) 
0.395

>  <smiles>  (385) 
COc1ccc(F)c(C2(NC(=O)c3nn(C)c4ccc(F)cc34)CC2)c1

>  <gnina_score>  (385) 
6.047

>  <inspiration_score>  (385) 
None

>  <energy_score>  (385) 
-16.772224

>  <distance_score>  (385) 
1.063466

>  <gnina_score_min>  (385) 
6.155

>  <inchikey>  (385) 
DEJFEBKWGQMMHW-UHFFFAOYSA-N

>  <exports>  (385) 
['/opt/xchem-fragalysis-2/maxwin/BulkDock/OUTPUTS/openbind_a71ev2a_c2_elabs_1LOUU54.sdf', '/opt/xchem-fragalysis-2/maxwin/BulkDock/OUTPUTS/openbind_a71ev2a_c2_elabs_1LSYIDY.sdf']

>  <name>  (385) 
P570700

>  <ref_pdb>  (385) 
A2339a

>  <subsites>  (385) 
None

>  <HIPPO Pose ID>  (385) 
570700

>  <ref_mols>  (385) 
A2339a

>  <HIPPO Compound ID>  (385) 
411981

>  <tags>  (385) 
openbind_a71ev2a_c2_elabs,syndirella_product,openbind_a71ev2a_c2_elabs_scored,BulkDock Fragalysis export,openbind_a71ev2a_c2_elabs_scored_top80percent,openbind_a71ev2a_c2_elabs_scored_6plus,openbind_a71ev2a_c2_elabs_scored_top80percent_despaghettified,syndirella_placed

>  <smina_score_min>  (385) 
-6.932

$$$$
P570702
     RDKit          3D

 26 30  0  0  0  0  0  0  0  0999 V2000
    9.2969    8.0426   23.3336 C   0  0  0  0  0  0  0  0  0  0  0  0
    9.0367    9.4336   23.5113 N   0  0  0  0  0  0  0  0  0  0  0  0
    9.8622   10.2610   22.8787 N   0  0  0  0  0  0  0  0  0  0  0  0
    9.6483   11.4080   23.4952 C   0  0  0  0  0  0  0  0  0  0  0  0
   10.6119   12.4656   23.5033 C   0  0  0  0  0  0  0  0  0  0  0  0
   11.6232   12.3842   24.0647 O   0  0  0  0  0  0  0  0  0  0  0  0
    9.9904   13.6281   22.7653 N   0  0  0  0  0  0  0  0  0  0  0  0
   10.4083   14.9278   22.6354 C   0  0  0  0  0  0  0  0  0  0  0  0
   10.2578   15.3969   24.1492 C   0  0  0  0  0  0  0  0  0  0  0  0
    9.0475   15.5003   24.6919 N   0  0  0  0  0  0  0  0  0  0  0  0
    9.2618   15.5442   26.0440 C   0  0  0  0  0  0  0  0  0  0  0  0
    8.3697   15.7005   27.1109 C   0  0  0  0  0  0  0  0  0  0  0  0
    8.8951   15.7292   28.4101 C   0  0  0  0  0  0  0  0  0  0  0  0
   10.2700   15.5944   28.6352 C   0  0  0  0  0  0  0  0  0  0  0  0
   11.1689   15.4245   27.5746 C   0  0  0  0  0  0  0  0  0  0  0  0
   10.6143   15.4187   26.3002 C   0  0  0  0  0  0  0  0  0  0  0  0
   11.2596   15.3154   25.0974 O   0  0  0  0  0  0  0  0  0  0  0  0
   11.5291   15.3435   21.7395 C   0  0  0  0  0  0  0  0  0  0  0  0
   10.1144   15.7556   21.4288 C   0  0  0  0  0  0  0  0  0  0  0  0
    8.4771   11.3931   24.3084 C   0  0  0  0  0  0  0  0  0  0  0  0
    7.7459   12.3114   25.0918 C   0  0  0  0  0  0  0  0  0  0  0  0
    6.7347   11.8451   25.9312 C   0  0  0  0  0  0  0  0  0  0  0  0
    6.0724   12.7009   26.7225 F   0  0  0  0  0  0  0  0  0  0  0  0
    6.4450   10.4985   26.0125 C   0  0  0  0  0  0  0  0  0  0  0  0
    7.1630    9.5863   25.2403 C   0  0  0  0  0  0  0  0  0  0  0  0
    8.1601   10.0474   24.3752 C   0  0  0  0  0  0  0  0  0  0  0  0
  1  2  1  0
  2  3  1  0
  3  4  2  0
  4  5  1  0
  5  6  2  0
  5  7  1  0
  7  8  1  0
  8  9  1  0
  9 10  2  0
 10 11  1  0
 11 12  2  0
 12 13  1  0
 13 14  2  0
 14 15  1  0
 15 16  2  0
 16 17  1  0
  8 18  1  0
 18 19  1  0
  4 20  1  0
 20 21  2  0
 21 22  1  0
 22 23  1  0
 22 24  2  0
 24 25  1  0
 25 26  2  0
 26  2  1  0
 19  8  1  0
 26 20  1  0
 17  9  1  0
 16 11  1  0
M  END
>  <alias>  (386) 
None

>  <rmsd(smina/fragmenstein)>  (386) 
0.191

>  <smiles>  (386) 
Cn1nc(C(=O)NC2(c3nc4ccccc4o3)CC2)c2cc(F)ccc21

>  <gnina_score>  (386) 
6.424

>  <inspiration_score>  (386) 
None

>  <energy_score>  (386) 
-1.389167

>  <distance_score>  (386) 
1.071498

>  <gnina_score_min>  (386) 
6.405

>  <inchikey>  (386) 
IAARVBYMPGXWLS-UHFFFAOYSA-N

>  <exports>  (386) 
['/opt/xchem-fragalysis-2/maxwin/BulkDock/OUTPUTS/openbind_a71ev2a_c2_elabs_1LOUU54.sdf', '/opt/xchem-fragalysis-2/maxwin/BulkDock/OUTPUTS/openbind_a71ev2a_c2_elabs_1LSYIDY.sdf']

>  <name>  (386) 
P570702

>  <ref_pdb>  (386) 
A2339a

>  <subsites>  (386) 
None

>  <HIPPO Pose ID>  (386) 
570702

>  <ref_mols>  (386) 
A2339a

>  <HIPPO Compound ID>  (386) 
411993

>  <tags>  (386) 
openbind_a71ev2a_c2_elabs,syndirella_product,openbind_a71ev2a_c2_elabs_scored,BulkDock Fragalysis export,openbind_a71ev2a_c2_elabs_scored_top80percent,openbind_a71ev2a_c2_elabs_scored_6plus,openbind_a71ev2a_c2_elabs_scored_top80percent_despaghettified,syndirella_placed

>  <smina_score_min>  (386) 
-6.253

$$$$
P570703
     RDKit          3D

 26 29  0  0  0  0  0  0  0  0999 V2000
    9.5245    8.8243   23.1401 C   0  0  0  0  0  0  0  0  0  0  0  0
    9.1990   10.0813   23.7736 N   0  0  0  0  0  0  0  0  0  0  0  0
    9.9013   11.1787   23.4227 N   0  0  0  0  0  0  0  0  0  0  0  0
    9.4507   12.1315   24.2502 C   0  0  0  0  0  0  0  0  0  0  0  0
    9.7020   13.5414   24.0642 C   0  0  0  0  0  0  0  0  0  0  0  0
   10.0829   14.2850   24.8718 O   0  0  0  0  0  0  0  0  0  0  0  0
    9.2540   13.7838   22.6341 N   0  0  0  0  0  0  0  0  0  0  0  0
    9.0877   14.9714   21.9259 C   0  0  1  0  0  0  0  0  0  0  0  0
    7.6350   15.3531   22.2852 C   0  0  0  0  0  0  0  0  0  0  0  0
    6.5432   14.8563   21.5674 C   0  0  0  0  0  0  0  0  0  0  0  0
    5.2109   14.9795   21.9891 C   0  0  0  0  0  0  0  0  0  0  0  0
    4.9236   15.5510   23.2185 C   0  0  0  0  0  0  0  0  0  0  0  0
    5.9766   15.9536   24.0212 C   0  0  0  0  0  0  0  0  0  0  0  0
    5.6418   16.5273   25.7924 Br  0  0  0  0  0  0  0  0  0  0  0  0
    7.2967   15.8405   23.5671 C   0  0  0  0  0  0  0  0  0  0  0  0
   10.1549   16.0180   21.7225 C   0  0  0  0  0  0  0  0  0  0  0  0
    9.8031   15.1243   20.6155 C   0  0  0  0  0  0  0  0  0  0  0  0
   10.7727   14.2483   20.1974 F   0  0  0  0  0  0  0  0  0  0  0  0
    9.2385   15.6394   19.4862 F   0  0  0  0  0  0  0  0  0  0  0  0
    8.3007   11.7043   24.9619 C   0  0  0  0  0  0  0  0  0  0  0  0
    7.3265   12.3376   25.7599 C   0  0  0  0  0  0  0  0  0  0  0  0
    6.3295   11.5583   26.3323 C   0  0  0  0  0  0  0  0  0  0  0  0
    5.4376   12.1349   27.1473 F   0  0  0  0  0  0  0  0  0  0  0  0
    6.2760   10.1911   26.1156 C   0  0  0  0  0  0  0  0  0  0  0  0
    7.2096    9.5755   25.2768 C   0  0  0  0  0  0  0  0  0  0  0  0
    8.1953   10.3538   24.6758 C   0  0  0  0  0  0  0  0  0  0  0  0
  1  2  1  0
  2  3  1  0
  3  4  2  0
  4  5  1  0
  5  6  2  0
  5  7  1  0
  8  7  1  1
  8  9  1  0
  9 10  2  0
 10 11  1  0
 11 12  2  0
 12 13  1  0
 13 14  1  0
 13 15  2  0
  8 16  1  0
 16 17  1  0
 17 18  1  0
 17 19  1  0
  4 20  1  0
 20 21  2  0
 21 22  1  0
 22 23  1  0
 22 24  2  0
 24 25  1  0
 25 26  2  0
 26  2  1  0
 17  8  1  0
 26 20  1  0
 15  9  1  0
M  END
>  <alias>  (387) 
None

>  <rmsd(smina/fragmenstein)>  (387) 
0.793

>  <smiles>  (387) 
Cn1nc(C(=O)N[C@@]2(c3cccc(Br)c3)CC2(F)F)c2cc(F)ccc21

>  <gnina_score>  (387) 
5.999

>  <inspiration_score>  (387) 
None

>  <energy_score>  (387) 
-21.150859

>  <distance_score>  (387) 
0.974318

>  <gnina_score_min>  (387) 
6.239

>  <inchikey>  (387) 
BLUOEPJDYBLSHF-QGZVFWFLSA-N

>  <exports>  (387) 
['/opt/xchem-fragalysis-2/maxwin/BulkDock/OUTPUTS/openbind_a71ev2a_c2_elabs_1LOUU54.sdf', '/opt/xchem-fragalysis-2/maxwin/BulkDock/OUTPUTS/openbind_a71ev2a_c2_elabs_1LSYIDY.sdf']

>  <name>  (387) 
P570703

>  <ref_pdb>  (387) 
A2339a

>  <subsites>  (387) 
None

>  <HIPPO Pose ID>  (387) 
570703

>  <ref_mols>  (387) 
A2339a

>  <HIPPO Compound ID>  (387) 
411999

>  <tags>  (387) 
openbind_a71ev2a_c2_elabs,syndirella_product,openbind_a71ev2a_c2_elabs_scored,BulkDock Fragalysis export,openbind_a71ev2a_c2_elabs_scored_top80percent,openbind_a71ev2a_c2_elabs_scored_6plus,openbind_a71ev2a_c2_elabs_scored_top80percent_despaghettified,syndirella_placed

>  <smina_score_min>  (387) 
-7.111

$$$$
P570704
     RDKit          3D

 26 29  0  0  0  0  0  0  0  0999 V2000
   11.2000   14.8835   26.3982 C   0  0  0  0  0  0  0  0  0  0  0  0
   11.5171   14.1436   25.2017 O   0  0  0  0  0  0  0  0  0  0  0  0
   11.3005   14.8886   24.0775 C   0  0  0  0  0  0  0  0  0  0  0  0
   11.1862   16.0882   24.1183 O   0  0  0  0  0  0  0  0  0  0  0  0
   11.1001   14.1476   22.8039 C   0  0  2  0  0  0  0  0  0  0  0  0
   10.1344   13.2104   23.0926 N   0  0  0  0  0  0  0  0  0  0  0  0
    8.8136   13.3497   23.8232 C   0  0  0  0  0  0  0  0  0  0  0  0
    8.2790   14.2907   24.2381 O   0  0  0  0  0  0  0  0  0  0  0  0
    8.3399   12.0163   24.0179 C   0  0  0  0  0  0  0  0  0  0  0  0
    8.9695   10.9771   23.4471 N   0  0  0  0  0  0  0  0  0  0  0  0
    8.4139    9.9157   24.0384 N   0  0  0  0  0  0  0  0  0  0  0  0
    8.9229    8.6193   23.6688 C   0  0  0  0  0  0  0  0  0  0  0  0
    7.4508   10.2613   24.9599 C   0  0  0  0  0  0  0  0  0  0  0  0
    6.5934    9.5437   25.7799 C   0  0  0  0  0  0  0  0  0  0  0  0
    5.7817   10.2210   26.6924 C   0  0  0  0  0  0  0  0  0  0  0  0
    5.8049   11.6015   26.7517 C   0  0  0  0  0  0  0  0  0  0  0  0
    5.0517   12.2412   27.6509 F   0  0  0  0  0  0  0  0  0  0  0  0
    6.6027   12.3392   25.8986 C   0  0  0  0  0  0  0  0  0  0  0  0
    7.4140   11.6449   24.9873 C   0  0  0  0  0  0  0  0  0  0  0  0
   12.1329   13.9992   21.7521 C   0  0  0  0  0  0  0  0  0  0  0  0
   10.9670   14.9146   21.4841 C   0  0  0  0  0  0  0  0  0  0  0  0
    9.8731   14.5639   20.5004 C   0  0  0  0  0  0  0  0  0  0  0  0
   10.0179   15.4208   19.2349 C   0  0  0  0  0  0  0  0  0  0  0  0
    9.8574   16.8125   19.5030 O   0  0  0  0  0  0  0  0  0  0  0  0
   10.1365   17.1441   20.8594 C   0  0  0  0  0  0  0  0  0  0  0  0
   11.3551   16.3420   21.3282 C   0  0  0  0  0  0  0  0  0  0  0  0
  1  2  1  0
  2  3  1  0
  3  4  2  0
  3  5  1  0
  5  6  1  1
  6  7  1  0
  7  8  2  0
  7  9  1  0
  9 10  2  0
 10 11  1  0
 11 12  1  0
 11 13  1  0
 13 14  2  0
 14 15  1  0
 15 16  2  0
 16 17  1  0
 16 18  1  0
 18 19  2  0
  5 20  1  0
 20 21  1  0
 21 22  1  0
 22 23  1  0
 23 24  1  0
 24 25  1  0
 25 26  1  0
 21  5  1  0
 19  9  1  0
 26 21  1  0
 19 13  1  0
M  END
>  <alias>  (388) 
None

>  <rmsd(smina/fragmenstein)>  (388) 
0.603

>  <smiles>  (388) 
COC(=O)[C@]1(NC(=O)c2nn(C)c3ccc(F)cc23)CC12CCOCC2

>  <gnina_score>  (388) 
5.944

>  <inspiration_score>  (388) 
None

>  <energy_score>  (388) 
-22.833513

>  <distance_score>  (388) 
1.029099

>  <gnina_score_min>  (388) 
5.705

>  <inchikey>  (388) 
ZRCIQVGYOZZANP-GOSISDBHSA-N

>  <exports>  (388) 
['/opt/xchem-fragalysis-2/maxwin/BulkDock/OUTPUTS/openbind_a71ev2a_c2_elabs_1LOUU54.sdf', '/opt/xchem-fragalysis-2/maxwin/BulkDock/OUTPUTS/openbind_a71ev2a_c2_elabs_1LSYIDY.sdf']

>  <name>  (388) 
P570704

>  <ref_pdb>  (388) 
A2339a

>  <subsites>  (388) 
None

>  <HIPPO Pose ID>  (388) 
570704

>  <ref_mols>  (388) 
A2339a

>  <HIPPO Compound ID>  (388) 
412004

>  <tags>  (388) 
openbind_a71ev2a_c2_elabs,syndirella_product,openbind_a71ev2a_c2_elabs_scored,BulkDock Fragalysis export,openbind_a71ev2a_c2_elabs_scored_top80percent,openbind_a71ev2a_c2_elabs_scored_top80percent_despaghettified,syndirella_placed

>  <smina_score_min>  (388) 
-5.007

$$$$
P570710
     RDKit          3D

 26 30  0  0  0  0  0  0  0  0999 V2000
    9.2922    8.6889   23.4463 C   0  0  0  0  0  0  0  0  0  0  0  0
    8.7468    9.9922   23.7419 N   0  0  0  0  0  0  0  0  0  0  0  0
    9.2381   11.0479   23.0719 N   0  0  0  0  0  0  0  0  0  0  0  0
    8.5633   12.0947   23.5743 C   0  0  0  0  0  0  0  0  0  0  0  0
    8.9541   13.4550   23.2767 C   0  0  0  0  0  0  0  0  0  0  0  0
    8.3803   14.3604   23.7284 O   0  0  0  0  0  0  0  0  0  0  0  0
   10.2195   13.4103   22.4207 N   0  0  0  0  0  0  0  0  0  0  0  0
   11.0779   14.4260   22.0282 C   0  0  0  0  0  0  0  0  0  0  0  0
   11.6906   14.7620   23.4452 C   0  0  0  0  0  0  0  0  0  0  0  0
   12.3477   13.7984   24.1210 N   0  0  0  0  0  0  0  0  0  0  0  0
   11.9507   14.0027   25.4386 O   0  0  0  0  0  0  0  0  0  0  0  0
   11.1648   15.1106   25.4720 C   0  0  0  0  0  0  0  0  0  0  0  0
   10.6032   15.7940   26.7559 C   0  0  0  0  0  0  0  0  0  0  0  0
    9.1415   15.4579   27.0974 C   0  0  0  0  0  0  0  0  0  0  0  0
    9.5456   15.5151   28.5838 C   0  0  0  0  0  0  0  0  0  0  0  0
   11.0031   15.2661   28.1393 C   0  0  0  0  0  0  0  0  0  0  0  0
   11.0023   15.6213   24.2755 N   0  0  0  0  0  0  0  0  0  0  0  0
   11.8501   14.6348   20.7753 C   0  0  0  0  0  0  0  0  0  0  0  0
   10.6702   15.5144   21.0846 C   0  0  0  0  0  0  0  0  0  0  0  0
    7.6829   11.7204   24.6102 C   0  0  0  0  0  0  0  0  0  0  0  0
    6.8468   12.4044   25.5133 C   0  0  0  0  0  0  0  0  0  0  0  0
    6.0898   11.6622   26.4084 C   0  0  0  0  0  0  0  0  0  0  0  0
    5.3121   12.2975   27.2928 F   0  0  0  0  0  0  0  0  0  0  0  0
    6.1317   10.2790   26.4085 C   0  0  0  0  0  0  0  0  0  0  0  0
    6.9835    9.6029   25.5322 C   0  0  0  0  0  0  0  0  0  0  0  0
    7.7845   10.3383   24.6631 C   0  0  0  0  0  0  0  0  0  0  0  0
  1  2  1  0
  2  3  1  0
  3  4  2  0
  4  5  1  0
  5  6  2  0
  5  7  1  0
  7  8  1  0
  8  9  1  0
  9 10  2  0
 10 11  1  0
 11 12  1  0
 12 13  1  0
 13 14  1  0
 14 15  1  0
 15 16  1  0
 12 17  2  0
  8 18  1  0
 18 19  1  0
  4 20  1  0
 20 21  2  0
 21 22  1  0
 22 23  1  0
 22 24  2  0
 24 25  1  0
 25 26  2  0
 26  2  1  0
 19  8  1  0
 26 20  1  0
 17  9  1  0
 16 13  1  0
M  END
>  <alias>  (389) 
None

>  <rmsd(smina/fragmenstein)>  (389) 
0.476

>  <smiles>  (389) 
Cn1nc(C(=O)NC2(c3noc(C4CCC4)n3)CC2)c2cc(F)ccc21

>  <gnina_score>  (389) 
6.373

>  <inspiration_score>  (389) 
None

>  <energy_score>  (389) 
-30.537018

>  <distance_score>  (389) 
0.605936

>  <gnina_score_min>  (389) 
6.256

>  <inchikey>  (389) 
APALYEMAEBKRGE-UHFFFAOYSA-N

>  <exports>  (389) 
['/opt/xchem-fragalysis-2/maxwin/BulkDock/OUTPUTS/openbind_a71ev2a_c2_elabs_1LOUU54.sdf', '/opt/xchem-fragalysis-2/maxwin/BulkDock/OUTPUTS/openbind_a71ev2a_c2_elabs_1LSYIDY.sdf']

>  <name>  (389) 
P570710

>  <ref_pdb>  (389) 
A2339a

>  <subsites>  (389) 
None

>  <HIPPO Pose ID>  (389) 
570710

>  <ref_mols>  (389) 
A2339a

>  <HIPPO Compound ID>  (389) 
412007

>  <tags>  (389) 
openbind_a71ev2a_c2_elabs,syndirella_product,openbind_a71ev2a_c2_elabs_scored,BulkDock Fragalysis export,openbind_a71ev2a_c2_elabs_scored_top80percent,openbind_a71ev2a_c2_elabs_scored_6plus,openbind_a71ev2a_c2_elabs_scored_top80percent_despaghettified,syndirella_placed

>  <smina_score_min>  (389) 
-5.835

$$$$
P570711
     RDKit          3D

 26 29  0  0  0  0  0  0  0  0999 V2000
    9.1512    8.3201   23.3229 C   0  0  0  0  0  0  0  0  0  0  0  0
    8.9379    9.6929   23.6822 N   0  0  0  0  0  0  0  0  0  0  0  0
    9.7607   10.5982   23.1484 N   0  0  0  0  0  0  0  0  0  0  0  0
    9.5780   11.6730   23.9188 C   0  0  0  0  0  0  0  0  0  0  0  0
   10.4869   12.7966   23.8231 C   0  0  0  0  0  0  0  0  0  0  0  0
   10.7296   13.4743   24.7404 O   0  0  0  0  0  0  0  0  0  0  0  0
   10.9108   12.9211   22.3542 N   0  0  0  0  0  0  0  0  0  0  0  0
   11.6231   13.9259   21.6978 C   0  0  1  0  0  0  0  0  0  0  0  0
   11.2920   14.3991   20.3103 C   0  0  0  0  0  0  0  0  0  0  0  0
   10.7922   15.1838   21.4760 C   0  0  2  0  0  0  0  0  0  0  0  0
   11.5083   16.4435   21.6938 C   0  0  0  0  0  0  0  0  0  0  0  0
    9.3339   15.1334   22.0051 C   0  0  0  0  0  0  0  0  0  0  0  0
    9.0326   15.3465   23.3572 C   0  0  0  0  0  0  0  0  0  0  0  0
    7.7313   15.3211   23.8664 C   0  0  0  0  0  0  0  0  0  0  0  0
    7.5307   15.6172   25.1576 F   0  0  0  0  0  0  0  0  0  0  0  0
    6.6641   14.9785   23.0661 C   0  0  0  0  0  0  0  0  0  0  0  0
    6.9232   14.6929   21.7377 C   0  0  0  0  0  0  0  0  0  0  0  0
    8.2304   14.7999   21.2333 C   0  0  0  0  0  0  0  0  0  0  0  0
    8.4254   14.5338   19.9459 F   0  0  0  0  0  0  0  0  0  0  0  0
    8.4133   11.5557   24.7196 C   0  0  0  0  0  0  0  0  0  0  0  0
    7.6685   12.3879   25.5773 C   0  0  0  0  0  0  0  0  0  0  0  0
    6.5857   11.8593   26.2740 C   0  0  0  0  0  0  0  0  0  0  0  0
    5.8931   12.6381   27.1149 F   0  0  0  0  0  0  0  0  0  0  0  0
    6.2576   10.5216   26.1722 C   0  0  0  0  0  0  0  0  0  0  0  0
    6.9969    9.6846   25.3368 C   0  0  0  0  0  0  0  0  0  0  0  0
    8.0479   10.2221   24.5878 C   0  0  0  0  0  0  0  0  0  0  0  0
  1  2  1  0
  2  3  1  0
  3  4  2  0
  4  5  1  0
  5  6  2  0
  5  7  1  0
  8  7  1  1
  8  9  1  0
  9 10  1  0
 10 11  1  6
 10 12  1  0
 12 13  2  0
 13 14  1  0
 14 15  1  0
 14 16  2  0
 16 17  1  0
 17 18  2  0
 18 19  1  0
  4 20  1  0
 20 21  2  0
 21 22  1  0
 22 23  1  0
 22 24  2  0
 24 25  1  0
 25 26  2  0
 26  2  1  0
 10  8  1  0
 18 12  1  0
 26 20  1  0
M  END
>  <alias>  (390) 
None

>  <rmsd(smina/fragmenstein)>  (390) 
0.543

>  <smiles>  (390) 
Cn1nc(C(=O)N[C@H]2C[C@@]2(C)c2cc(F)ccc2F)c2cc(F)ccc21

>  <gnina_score>  (390) 
6.418

>  <inspiration_score>  (390) 
None

>  <energy_score>  (390) 
-18.427164

>  <distance_score>  (390) 
0.760795

>  <gnina_score_min>  (390) 
6.451

>  <inchikey>  (390) 
BQFZRQNVQPPQJF-LPHOPBHVSA-N

>  <exports>  (390) 
['/opt/xchem-fragalysis-2/maxwin/BulkDock/OUTPUTS/openbind_a71ev2a_c2_elabs_1LOUU54.sdf', '/opt/xchem-fragalysis-2/maxwin/BulkDock/OUTPUTS/openbind_a71ev2a_c2_elabs_1LSYIDY.sdf']

>  <name>  (390) 
P570711

>  <ref_pdb>  (390) 
A2339a

>  <subsites>  (390) 
None

>  <HIPPO Pose ID>  (390) 
570711

>  <ref_mols>  (390) 
A2339a

>  <HIPPO Compound ID>  (390) 
412016

>  <tags>  (390) 
openbind_a71ev2a_c2_elabs,syndirella_product,openbind_a71ev2a_c2_elabs_scored,BulkDock Fragalysis export,openbind_a71ev2a_c2_elabs_scored_top80percent,openbind_a71ev2a_c2_elabs_scored_6plus,openbind_a71ev2a_c2_elabs_scored_top80percent_despaghettified,syndirella_placed

>  <smina_score_min>  (390) 
-5.479

$$$$
P570712
     RDKit          3D

 26 29  0  0  0  0  0  0  0  0999 V2000
   10.3365   15.7215   19.4047 C   0  0  0  0  0  0  0  0  0  0  0  0
    9.8452   15.0293   20.6573 C   0  0  0  0  0  0  0  0  0  0  0  0
   10.6127   15.4668   21.8609 C   0  0  2  0  0  0  0  0  0  0  0  0
   11.8958   14.7889   22.2404 C   0  0  0  0  0  0  0  0  0  0  0  0
   10.6914   14.6214   23.1131 C   0  0  2  0  0  0  0  0  0  0  0  0
   10.0777   13.4011   23.2302 N   0  0  0  0  0  0  0  0  0  0  0  0
    8.6623   12.9859   22.9381 C   0  0  0  0  0  0  0  0  0  0  0  0
    7.7844   13.5810   22.4743 O   0  0  0  0  0  0  0  0  0  0  0  0
    8.5580   11.6761   23.4533 C   0  0  0  0  0  0  0  0  0  0  0  0
    9.3706   10.6689   23.1485 N   0  0  0  0  0  0  0  0  0  0  0  0
    8.7950    9.6517   23.8054 N   0  0  0  0  0  0  0  0  0  0  0  0
    9.2570    8.3312   23.4863 C   0  0  0  0  0  0  0  0  0  0  0  0
    7.8327   10.0651   24.7044 C   0  0  0  0  0  0  0  0  0  0  0  0
    6.9705    9.4356   25.5874 C   0  0  0  0  0  0  0  0  0  0  0  0
    6.1313   10.1881   26.4163 C   0  0  0  0  0  0  0  0  0  0  0  0
    6.1401   11.5663   26.3403 C   0  0  0  0  0  0  0  0  0  0  0  0
    5.3740   12.2831   27.1714 F   0  0  0  0  0  0  0  0  0  0  0  0
    6.9224   12.2132   25.3995 C   0  0  0  0  0  0  0  0  0  0  0  0
    7.7471   11.4318   24.5663 C   0  0  0  0  0  0  0  0  0  0  0  0
   10.3092   15.1923   24.4918 C   0  0  0  0  0  0  0  0  0  0  0  0
    8.9534   15.5282   24.7665 C   0  0  0  0  0  0  0  0  0  0  0  0
    8.4777   15.8500   26.0426 C   0  0  0  0  0  0  0  0  0  0  0  0
    9.3438   15.8074   27.1222 C   0  0  0  0  0  0  0  0  0  0  0  0
   10.6614   15.3837   26.9350 C   0  0  0  0  0  0  0  0  0  0  0  0
   11.5409   15.2338   28.1420 C   0  0  0  0  0  0  0  0  0  0  0  0
   11.1007   15.0418   25.6353 C   0  0  0  0  0  0  0  0  0  0  0  0
  1  2  1  0
  3  2  1  6
  3  4  1  0
  4  5  1  0
  5  6  1  6
  6  7  1  0
  7  8  2  0
  7  9  1  0
  9 10  2  0
 10 11  1  0
 11 12  1  0
 11 13  1  0
 13 14  2  0
 14 15  1  0
 15 16  2  0
 16 17  1  0
 16 18  1  0
 18 19  2  0
  5 20  1  0
 20 21  2  0
 21 22  1  0
 22 23  2  0
 23 24  1  0
 24 25  1  0
 24 26  2  0
  5  3  1  0
 19  9  1  0
 26 20  1  0
 19 13  1  0
M  END
>  <alias>  (391) 
None

>  <rmsd(smina/fragmenstein)>  (391) 
0.411

>  <smiles>  (391) 
CC[C@@H]1C[C@@]1(NC(=O)c1nn(C)c2ccc(F)cc12)c1cccc(C)c1

>  <gnina_score>  (391) 
6.374

>  <inspiration_score>  (391) 
None

>  <energy_score>  (391) 
-19.18133

>  <distance_score>  (391) 
1.091883

>  <gnina_score_min>  (391) 
6.419

>  <inchikey>  (391) 
BWKLFGKXNCDNHN-SZNDQCEHSA-N

>  <exports>  (391) 
['/opt/xchem-fragalysis-2/maxwin/BulkDock/OUTPUTS/openbind_a71ev2a_c2_elabs_1LOUU54.sdf', '/opt/xchem-fragalysis-2/maxwin/BulkDock/OUTPUTS/openbind_a71ev2a_c2_elabs_1LSYIDY.sdf']

>  <name>  (391) 
P570712

>  <ref_pdb>  (391) 
A2339a

>  <subsites>  (391) 
None

>  <HIPPO Pose ID>  (391) 
570712

>  <ref_mols>  (391) 
A2339a

>  <HIPPO Compound ID>  (391) 
412024

>  <tags>  (391) 
openbind_a71ev2a_c2_elabs,syndirella_product,openbind_a71ev2a_c2_elabs_scored,BulkDock Fragalysis export,openbind_a71ev2a_c2_elabs_scored_top80percent,openbind_a71ev2a_c2_elabs_scored_6plus,openbind_a71ev2a_c2_elabs_scored_top80percent_despaghettified,syndirella_placed

>  <smina_score_min>  (391) 
-6.679

$$$$
P570716
     RDKit          3D

 26 29  0  0  0  0  0  0  0  0999 V2000
    9.2014    9.1409   23.5295 C   0  0  0  0  0  0  0  0  0  0  0  0
    8.5831   10.3526   24.0267 N   0  0  0  0  0  0  0  0  0  0  0  0
    9.1064   11.5340   23.6572 N   0  0  0  0  0  0  0  0  0  0  0  0
    8.3496   12.4452   24.3023 C   0  0  0  0  0  0  0  0  0  0  0  0
    8.7342   13.8419   24.3574 C   0  0  0  0  0  0  0  0  0  0  0  0
    8.0076   14.7430   24.3123 O   0  0  0  0  0  0  0  0  0  0  0  0
   10.2440   13.8012   24.4431 N   0  0  0  0  0  0  0  0  0  0  0  0
   11.1898   14.8384   24.3984 C   0  0  0  0  0  0  0  0  0  0  0  0
   11.6446   14.7909   22.9921 C   0  0  0  0  0  0  0  0  0  0  0  0
   11.3053   15.6353   22.0257 C   0  0  0  0  0  0  0  0  0  0  0  0
   11.5482   15.3681   20.7068 N   0  0  0  0  0  0  0  0  0  0  0  0
   10.7929   16.0602   19.7179 C   0  0  0  0  0  0  0  0  0  0  0  0
    9.4165   15.5767   19.4647 C   0  0  0  0  0  0  0  0  0  0  0  0
    9.6315   16.9721   19.9913 C   0  0  0  0  0  0  0  0  0  0  0  0
   12.1099   14.1770   20.3006 C   0  0  0  0  0  0  0  0  0  0  0  0
   12.3285   13.8921   19.1252 O   0  0  0  0  0  0  0  0  0  0  0  0
   12.3469   13.2846   21.3028 N   0  0  0  0  0  0  0  0  0  0  0  0
   12.3306   13.5567   22.6230 C   0  0  0  0  0  0  0  0  0  0  0  0
   12.7882   12.8172   23.4936 O   0  0  0  0  0  0  0  0  0  0  0  0
    7.3745   11.8616   25.1048 C   0  0  0  0  0  0  0  0  0  0  0  0
    6.4452   12.3615   26.0242 C   0  0  0  0  0  0  0  0  0  0  0  0
    5.7031   11.4492   26.7495 C   0  0  0  0  0  0  0  0  0  0  0  0
    4.8476   11.9087   27.6673 F   0  0  0  0  0  0  0  0  0  0  0  0
    5.8494   10.0835   26.5626 C   0  0  0  0  0  0  0  0  0  0  0  0
    6.7745    9.5919   25.6377 C   0  0  0  0  0  0  0  0  0  0  0  0
    7.5558   10.4963   24.9313 C   0  0  0  0  0  0  0  0  0  0  0  0
  1  2  1  0
  2  3  1  0
  3  4  2  0
  4  5  1  0
  5  6  2  0
  5  7  1  0
  7  8  1  0
  8  9  1  0
  9 10  2  0
 10 11  1  0
 11 12  1  0
 12 13  1  0
 13 14  1  0
 11 15  1  0
 15 16  2  0
 15 17  1  0
 17 18  1  0
 18 19  2  0
  4 20  1  0
 20 21  2  0
 21 22  1  0
 22 23  1  0
 22 24  2  0
 24 25  1  0
 25 26  2  0
 26  2  1  0
 18  9  1  0
 26 20  1  0
 14 12  1  0
M  END
>  <alias>  (392) 
None

>  <rmsd(smina/fragmenstein)>  (392) 
0.717

>  <smiles>  (392) 
Cn1nc(C(=O)NCc2cn(C3CC3)c(=O)[nH]c2=O)c2cc(F)ccc21

>  <gnina_score>  (392) 
6.238

>  <inspiration_score>  (392) 
None

>  <energy_score>  (392) 
-16.712635

>  <distance_score>  (392) 
1.541911

>  <gnina_score_min>  (392) 
6.07

>  <inchikey>  (392) 
RXSHCMNJZAESBX-UHFFFAOYSA-N

>  <exports>  (392) 
['/opt/xchem-fragalysis-2/maxwin/BulkDock/OUTPUTS/openbind_a71ev2a_c2_elabs_1LOUU54.sdf', '/opt/xchem-fragalysis-2/maxwin/BulkDock/OUTPUTS/openbind_a71ev2a_c2_elabs_1LSYIDY.sdf']

>  <name>  (392) 
P570716

>  <ref_pdb>  (392) 
A2339a

>  <subsites>  (392) 
None

>  <HIPPO Pose ID>  (392) 
570716

>  <ref_mols>  (392) 
A2339a

>  <HIPPO Compound ID>  (392) 
412054

>  <tags>  (392) 
openbind_a71ev2a_c2_elabs,syndirella_product,openbind_a71ev2a_c2_elabs_scored,BulkDock Fragalysis export,openbind_a71ev2a_c2_elabs_scored_top80percent,openbind_a71ev2a_c2_elabs_scored_6plus,openbind_a71ev2a_c2_elabs_scored_top80percent_despaghettified,syndirella_placed

>  <smina_score_min>  (392) 
-6.557

$$$$
P570717
     RDKit          3D

 26 30  0  0  0  0  0  0  0  0999 V2000
    9.0639    8.7426   23.6368 C   0  0  0  0  0  0  0  0  0  0  0  0
    8.6860   10.0659   24.0735 N   0  0  0  0  0  0  0  0  0  0  0  0
    9.3838   11.1002   23.5983 N   0  0  0  0  0  0  0  0  0  0  0  0
    8.7840   12.1854   24.1257 C   0  0  0  0  0  0  0  0  0  0  0  0
    9.1678   13.5085   23.6526 C   0  0  0  0  0  0  0  0  0  0  0  0
    8.5998   14.4906   23.9103 O   0  0  0  0  0  0  0  0  0  0  0  0
   10.3519   13.2641   22.7184 N   0  0  0  0  0  0  0  0  0  0  0  0
   11.0038   14.1140   21.8664 C   0  0  0  0  0  0  0  0  0  0  0  0
   12.1813   13.6562   21.3492 C   0  0  0  0  0  0  0  0  0  0  0  0
   12.5827   14.0198   20.0611 C   0  0  0  0  0  0  0  0  0  0  0  0
   11.8908   14.8730   19.2689 C   0  0  0  0  0  0  0  0  0  0  0  0
   10.8580   15.4550   19.9042 C   0  0  0  0  0  0  0  0  0  0  0  0
   10.4063   15.1127   21.1848 C   0  0  0  0  0  0  0  0  0  0  0  0
    9.2175   15.9283   21.4549 C   0  0  0  0  0  0  0  0  0  0  0  0
    9.4934   17.0648   20.5788 N   0  0  0  0  0  0  0  0  0  0  0  0
    8.4495   18.0080   20.4754 C   0  0  0  0  0  0  0  0  0  0  0  0
    8.7499   19.3875   20.8723 C   0  0  0  0  0  0  0  0  0  0  0  0
    8.4010   19.1181   19.4668 C   0  0  0  0  0  0  0  0  0  0  0  0
   10.0104   16.5055   19.3610 C   0  0  0  0  0  0  0  0  0  0  0  0
    7.7627   11.8368   25.0205 C   0  0  0  0  0  0  0  0  0  0  0  0
    6.8739   12.5470   25.8419 C   0  0  0  0  0  0  0  0  0  0  0  0
    5.9713   11.8218   26.6068 C   0  0  0  0  0  0  0  0  0  0  0  0
    5.1556   12.4735   27.4424 F   0  0  0  0  0  0  0  0  0  0  0  0
    5.9033   10.4391   26.5366 C   0  0  0  0  0  0  0  0  0  0  0  0
    6.7545    9.7329   25.6867 C   0  0  0  0  0  0  0  0  0  0  0  0
    7.7021   10.4461   24.9548 C   0  0  0  0  0  0  0  0  0  0  0  0
  1  2  1  0
  2  3  1  0
  3  4  2  0
  4  5  1  0
  5  6  2  0
  5  7  1  0
  7  8  1  0
  8  9  2  0
  9 10  1  0
 10 11  2  0
 11 12  1  0
 12 13  2  0
 13 14  1  0
 14 15  1  0
 15 16  1  0
 16 17  1  0
 17 18  1  0
 15 19  1  0
  4 20  1  0
 20 21  2  0
 21 22  1  0
 22 23  1  0
 22 24  2  0
 24 25  1  0
 25 26  2  0
 26  2  1  0
 13  8  1  0
 18 16  1  0
 26 20  1  0
 19 12  1  0
M  END
>  <alias>  (393) 
None

>  <rmsd(smina/fragmenstein)>  (393) 
1.438

>  <smiles>  (393) 
Cn1nc(C(=O)Nc2cccc3c2CN(C2CC2)C3)c2cc(F)ccc21

>  <gnina_score>  (393) 
5.887

>  <inspiration_score>  (393) 
None

>  <energy_score>  (393) 
-10.208798

>  <distance_score>  (393) 
0.774593

>  <gnina_score_min>  (393) 
5.501

>  <inchikey>  (393) 
XVMYEFWYIHEPSD-UHFFFAOYSA-N

>  <exports>  (393) 
['/opt/xchem-fragalysis-2/maxwin/BulkDock/OUTPUTS/openbind_a71ev2a_c2_elabs_1LOUU54.sdf', '/opt/xchem-fragalysis-2/maxwin/BulkDock/OUTPUTS/openbind_a71ev2a_c2_elabs_1LSYIDY.sdf']

>  <name>  (393) 
P570717

>  <ref_pdb>  (393) 
A2339a

>  <subsites>  (393) 
None

>  <HIPPO Pose ID>  (393) 
570717

>  <ref_mols>  (393) 
A2339a

>  <HIPPO Compound ID>  (393) 
412057

>  <tags>  (393) 
openbind_a71ev2a_c2_elabs,syndirella_product,openbind_a71ev2a_c2_elabs_scored,BulkDock Fragalysis export,openbind_a71ev2a_c2_elabs_scored_top80percent,openbind_a71ev2a_c2_elabs_scored_top80percent_despaghettified,syndirella_placed

>  <smina_score_min>  (393) 
-4.701

$$$$
P570718
     RDKit          3D

 26 29  0  0  0  0  0  0  0  0999 V2000
    8.8938    8.8490   23.6888 C   0  0  0  0  0  0  0  0  0  0  0  0
    8.2957   10.1053   24.0804 N   0  0  0  0  0  0  0  0  0  0  0  0
    8.7756   11.2283   23.5298 N   0  0  0  0  0  0  0  0  0  0  0  0
    8.0893   12.2114   24.1489 C   0  0  0  0  0  0  0  0  0  0  0  0
    8.5760   13.5653   24.1549 C   0  0  0  0  0  0  0  0  0  0  0  0
    8.0069   14.4893   24.5630 O   0  0  0  0  0  0  0  0  0  0  0  0
    9.9827   13.4382   23.6152 N   0  0  0  0  0  0  0  0  0  0  0  0
   10.9999   14.3595   23.5454 C   0  0  0  0  0  0  0  0  0  0  0  0
   10.7275   15.5881   22.7529 C   0  0  0  0  0  0  0  0  0  0  0  0
   10.9812   15.3708   21.3211 C   0  0  0  0  0  0  0  0  0  0  0  0
   12.2680   15.0627   20.9186 C   0  0  0  0  0  0  0  0  0  0  0  0
   12.4822   14.7041   19.6228 C   0  0  0  0  0  0  0  0  0  0  0  0
   11.4729   14.8185   18.7015 C   0  0  0  0  0  0  0  0  0  0  0  0
   11.7555   14.4693   17.4526 F   0  0  0  0  0  0  0  0  0  0  0  0
   10.2180   15.2662   19.0592 C   0  0  0  0  0  0  0  0  0  0  0  0
    9.9606   15.4826   20.3906 C   0  0  0  0  0  0  0  0  0  0  0  0
    8.7197   15.7874   20.7871 F   0  0  0  0  0  0  0  0  0  0  0  0
   12.3767   13.8769   23.8793 C   0  0  0  0  0  0  0  0  0  0  0  0
   11.5606   14.5971   24.9137 C   0  0  0  0  0  0  0  0  0  0  0  0
    7.1878   11.7327   25.0937 C   0  0  0  0  0  0  0  0  0  0  0  0
    6.3633   12.3356   26.0535 C   0  0  0  0  0  0  0  0  0  0  0  0
    5.6418   11.5132   26.8945 C   0  0  0  0  0  0  0  0  0  0  0  0
    4.8772   12.0708   27.8367 F   0  0  0  0  0  0  0  0  0  0  0  0
    5.7061   10.1365   26.7816 C   0  0  0  0  0  0  0  0  0  0  0  0
    6.5379    9.5490   25.8267 C   0  0  0  0  0  0  0  0  0  0  0  0
    7.3213   10.3562   25.0187 C   0  0  0  0  0  0  0  0  0  0  0  0
  1  2  1  0
  2  3  1  0
  3  4  2  0
  4  5  1  0
  5  6  2  0
  5  7  1  0
  7  8  1  0
  8  9  1  0
  9 10  1  0
 10 11  2  0
 11 12  1  0
 12 13  2  0
 13 14  1  0
 13 15  1  0
 15 16  2  0
 16 17  1  0
  8 18  1  0
 18 19  1  0
  4 20  1  0
 20 21  2  0
 21 22  1  0
 22 23  1  0
 22 24  2  0
 24 25  1  0
 25 26  2  0
 26  2  1  0
 19  8  1  0
 26 20  1  0
 16 10  1  0
M  END
>  <alias>  (394) 
None

>  <rmsd(smina/fragmenstein)>  (394) 
0.891

>  <smiles>  (394) 
Cn1nc(C(=O)NC2(Cc3ccc(F)cc3F)CC2)c2cc(F)ccc21

>  <gnina_score>  (394) 
6.16

>  <inspiration_score>  (394) 
None

>  <energy_score>  (394) 
-23.004934

>  <distance_score>  (394) 
1.867207

>  <gnina_score_min>  (394) 
6.173

>  <inchikey>  (394) 
RCMAGHGDEUNHQF-UHFFFAOYSA-N

>  <exports>  (394) 
['/opt/xchem-fragalysis-2/maxwin/BulkDock/OUTPUTS/openbind_a71ev2a_c2_elabs_1LOUU54.sdf', '/opt/xchem-fragalysis-2/maxwin/BulkDock/OUTPUTS/openbind_a71ev2a_c2_elabs_1LSYIDY.sdf']

>  <name>  (394) 
P570718

>  <ref_pdb>  (394) 
A2339a

>  <subsites>  (394) 
None

>  <HIPPO Pose ID>  (394) 
570718

>  <ref_mols>  (394) 
A2339a

>  <HIPPO Compound ID>  (394) 
412060

>  <tags>  (394) 
openbind_a71ev2a_c2_elabs,syndirella_product,openbind_a71ev2a_c2_elabs_scored,BulkDock Fragalysis export,openbind_a71ev2a_c2_elabs_scored_top80percent,openbind_a71ev2a_c2_elabs_scored_6plus,openbind_a71ev2a_c2_elabs_scored_top80percent_despaghettified,syndirella_placed

>  <smina_score_min>  (394) 
-7.189

$$$$
P570719
     RDKit          3D

 26 29  0  0  0  0  0  0  0  0999 V2000
   14.3217   12.4790   25.6463 C   0  0  0  0  0  0  0  0  0  0  0  0
   13.3638   12.4139   24.6019 O   0  0  0  0  0  0  0  0  0  0  0  0
   12.5910   13.5104   24.3444 C   0  0  0  0  0  0  0  0  0  0  0  0
   11.8695   14.2196   25.3043 C   0  0  0  0  0  0  0  0  0  0  0  0
   10.9485   15.1793   24.9547 C   0  0  0  0  0  0  0  0  0  0  0  0
   10.7837   15.4730   23.6141 C   0  0  0  0  0  0  0  0  0  0  0  0
   11.4531   14.7936   22.5992 C   0  0  0  0  0  0  0  0  0  0  0  0
   10.6239   14.4844   21.3755 C   0  0  0  0  0  0  0  0  0  0  0  0
    9.9173   13.4304   21.9685 N   0  0  0  0  0  0  0  0  0  0  0  0
    8.7118   13.4481   22.9219 C   0  0  0  0  0  0  0  0  0  0  0  0
    8.0641   14.3383   23.3049 O   0  0  0  0  0  0  0  0  0  0  0  0
    8.5056   12.1005   23.4242 C   0  0  0  0  0  0  0  0  0  0  0  0
    9.2471   11.0682   22.9904 N   0  0  0  0  0  0  0  0  0  0  0  0
    8.8050   10.0221   23.7057 N   0  0  0  0  0  0  0  0  0  0  0  0
    9.3673    8.7232   23.4227 C   0  0  0  0  0  0  0  0  0  0  0  0
    7.8472   10.3687   24.6302 C   0  0  0  0  0  0  0  0  0  0  0  0
    7.0623    9.6338   25.5152 C   0  0  0  0  0  0  0  0  0  0  0  0
    6.2057   10.3150   26.3830 C   0  0  0  0  0  0  0  0  0  0  0  0
    6.1465   11.6986   26.3600 C   0  0  0  0  0  0  0  0  0  0  0  0
    5.3632   12.3357   27.2386 F   0  0  0  0  0  0  0  0  0  0  0  0
    6.8778   12.4368   25.4385 C   0  0  0  0  0  0  0  0  0  0  0  0
    7.7109   11.7471   24.5372 C   0  0  0  0  0  0  0  0  0  0  0  0
   11.1490   14.6900   20.0004 C   0  0  0  0  0  0  0  0  0  0  0  0
   10.0203   15.5404   20.5125 C   0  0  0  0  0  0  0  0  0  0  0  0
   12.3763   13.8274   23.0062 C   0  0  0  0  0  0  0  0  0  0  0  0
   12.7906   12.9758   22.0696 F   0  0  0  0  0  0  0  0  0  0  0  0
  1  2  1  0
  2  3  1  0
  3  4  2  0
  4  5  1  0
  5  6  2  0
  6  7  1  0
  7  8  1  0
  8  9  1  0
  9 10  1  0
 10 11  2  0
 10 12  1  0
 12 13  2  0
 13 14  1  0
 14 15  1  0
 14 16  1  0
 16 17  2  0
 17 18  1  0
 18 19  2  0
 19 20  1  0
 19 21  1  0
 21 22  2  0
  8 23  1  0
 23 24  1  0
  7 25  2  0
 25 26  1  0
 25  3  1  0
 24  8  1  0
 22 12  1  0
 22 16  1  0
M  END
>  <alias>  (395) 
None

>  <rmsd(smina/fragmenstein)>  (395) 
0.914

>  <smiles>  (395) 
COc1cccc(C2(NC(=O)c3nn(C)c4ccc(F)cc34)CC2)c1F

>  <gnina_score>  (395) 
6.412

>  <inspiration_score>  (395) 
None

>  <energy_score>  (395) 
-5.729875

>  <distance_score>  (395) 
0.753172

>  <gnina_score_min>  (395) 
6.198

>  <inchikey>  (395) 
KKSNZOJSJZSJRN-UHFFFAOYSA-N

>  <exports>  (395) 
['/opt/xchem-fragalysis-2/maxwin/BulkDock/OUTPUTS/openbind_a71ev2a_c2_elabs_1LOUU54.sdf', '/opt/xchem-fragalysis-2/maxwin/BulkDock/OUTPUTS/openbind_a71ev2a_c2_elabs_1LSYIDY.sdf']

>  <name>  (395) 
P570719

>  <ref_pdb>  (395) 
A2339a

>  <subsites>  (395) 
None

>  <HIPPO Pose ID>  (395) 
570719

>  <ref_mols>  (395) 
A2339a

>  <HIPPO Compound ID>  (395) 
412061

>  <tags>  (395) 
openbind_a71ev2a_c2_elabs,syndirella_product,openbind_a71ev2a_c2_elabs_scored,BulkDock Fragalysis export,openbind_a71ev2a_c2_elabs_scored_top80percent,openbind_a71ev2a_c2_elabs_scored_6plus,openbind_a71ev2a_c2_elabs_scored_top80percent_despaghettified,syndirella_placed

>  <smina_score_min>  (395) 
-5.662

$$$$
P570720
     RDKit          3D

 26 30  0  0  0  0  0  0  0  0999 V2000
    9.6065    8.9019   23.0707 C   0  0  0  0  0  0  0  0  0  0  0  0
    9.3242   10.2092   23.6192 N   0  0  0  0  0  0  0  0  0  0  0  0
   10.0784   11.2537   23.2235 N   0  0  0  0  0  0  0  0  0  0  0  0
    9.6510   12.2869   23.9712 C   0  0  0  0  0  0  0  0  0  0  0  0
   10.1420   13.6614   23.7555 C   0  0  0  0  0  0  0  0  0  0  0  0
   10.0535   14.4877   24.5764 O   0  0  0  0  0  0  0  0  0  0  0  0
   10.6407   13.7487   22.2978 N   0  0  0  0  0  0  0  0  0  0  0  0
   11.0376   14.8671   21.5276 C   0  0  1  0  0  0  0  0  0  0  0  0
   10.8051   14.8136   20.0517 C   0  0  0  0  0  0  0  0  0  0  0  0
    9.8669   15.6477   20.8506 C   0  0  2  0  0  0  0  0  0  0  0  0
    9.9270   17.1334   20.6306 C   0  0  0  0  0  0  0  0  0  0  0  0
    8.6208   17.7314   21.1549 C   0  0  0  0  0  0  0  0  0  0  0  0
    7.9337   16.5797   21.8449 C   0  0  0  0  0  0  0  0  0  0  0  0
    6.9054   16.6089   22.7961 C   0  0  0  0  0  0  0  0  0  0  0  0
    6.3218   15.4403   23.2287 C   0  0  0  0  0  0  0  0  0  0  0  0
    5.0005   15.4482   24.5758 Br  0  0  0  0  0  0  0  0  0  0  0  0
    6.7624   14.2522   22.6933 C   0  0  0  0  0  0  0  0  0  0  0  0
    7.8458   14.2314   21.8135 C   0  0  0  0  0  0  0  0  0  0  0  0
    8.5051   15.3867   21.4427 C   0  0  0  0  0  0  0  0  0  0  0  0
    8.5149   11.9143   24.7524 C   0  0  0  0  0  0  0  0  0  0  0  0
    7.5970   12.5832   25.5885 C   0  0  0  0  0  0  0  0  0  0  0  0
    6.5842   11.8475   26.2020 C   0  0  0  0  0  0  0  0  0  0  0  0
    5.7355   12.4630   27.0359 F   0  0  0  0  0  0  0  0  0  0  0  0
    6.4620   10.4800   26.0057 C   0  0  0  0  0  0  0  0  0  0  0  0
    7.3468    9.8090   25.1601 C   0  0  0  0  0  0  0  0  0  0  0  0
    8.3470   10.5515   24.5226 C   0  0  0  0  0  0  0  0  0  0  0  0
  1  2  1  0
  2  3  1  0
  3  4  2  0
  4  5  1  0
  5  6  2  0
  5  7  1  0
  8  7  1  1
  8  9  1  0
 10  9  1  6
 10 11  1  0
 11 12  1  0
 12 13  1  0
 13 14  2  0
 14 15  1  0
 15 16  1  0
 15 17  2  0
 17 18  1  0
 18 19  2  0
  4 20  1  0
 20 21  2  0
 21 22  1  0
 22 23  1  0
 22 24  2  0
 24 25  1  0
 25 26  2  0
 26  2  1  0
 10  8  1  0
 19 13  1  0
 26 20  1  0
 19 10  1  0
M  END
>  <alias>  (396) 
None

>  <rmsd(smina/fragmenstein)>  (396) 
0.834

>  <smiles>  (396) 
Cn1nc(C(=O)N[C@H]2C[C@]23CCc2cc(Br)ccc23)c2cc(F)ccc21

>  <gnina_score>  (396) 
6.462

>  <inspiration_score>  (396) 
None

>  <energy_score>  (396) 
-12.137893

>  <distance_score>  (396) 
0.541739

>  <gnina_score_min>  (396) 
6.498

>  <inchikey>  (396) 
ZWTMJSXMPTWHRG-PXNSSMCTSA-N

>  <exports>  (396) 
['/opt/xchem-fragalysis-2/maxwin/BulkDock/OUTPUTS/openbind_a71ev2a_c2_elabs_1LOUU54.sdf', '/opt/xchem-fragalysis-2/maxwin/BulkDock/OUTPUTS/openbind_a71ev2a_c2_elabs_1LSYIDY.sdf']

>  <name>  (396) 
P570720

>  <ref_pdb>  (396) 
A2339a

>  <subsites>  (396) 
None

>  <HIPPO Pose ID>  (396) 
570720

>  <ref_mols>  (396) 
A2339a

>  <HIPPO Compound ID>  (396) 
412064

>  <tags>  (396) 
openbind_a71ev2a_c2_elabs,syndirella_product,openbind_a71ev2a_c2_elabs_scored,BulkDock Fragalysis export,openbind_a71ev2a_c2_elabs_scored_top80percent,openbind_a71ev2a_c2_elabs_scored_6plus,openbind_a71ev2a_c2_elabs_scored_top80percent_despaghettified,syndirella_placed

>  <smina_score_min>  (396) 
-6.885

$$$$
P570721
     RDKit          3D

 26 30  0  0  0  0  0  0  0  0999 V2000
    8.6086    8.7561   23.8839 C   0  0  0  0  0  0  0  0  0  0  0  0
    8.0996    9.9325   24.5475 N   0  0  0  0  0  0  0  0  0  0  0  0
    8.8143   11.0469   24.3844 N   0  0  0  0  0  0  0  0  0  0  0  0
    8.2480   11.9129   25.2387 C   0  0  0  0  0  0  0  0  0  0  0  0
    8.6170   13.2924   25.2708 C   0  0  0  0  0  0  0  0  0  0  0  0
    8.1790   14.0950   25.9743 O   0  0  0  0  0  0  0  0  0  0  0  0
    9.5844   13.4153   24.1461 N   0  0  0  0  0  0  0  0  0  0  0  0
   10.1531   14.5252   23.5746 C   0  0  0  0  0  0  0  0  0  0  0  0
    8.8323   14.9419   22.7674 C   0  0  0  0  0  0  0  0  0  0  0  0
    9.3860   15.8303   21.7799 C   0  0  2  0  0  0  0  0  0  0  0  0
    9.0586   17.1335   21.2120 C   0  0  0  0  0  0  0  0  0  0  0  0
   10.4769   17.5656   20.8723 C   0  0  0  0  0  0  0  0  0  0  0  0
   11.7716   16.6079   21.5258 C   0  0  0  0  0  0  0  0  0  0  0  0
   11.6051   15.0939   21.5141 C   0  0  1  0  0  0  0  0  0  0  0  0
   11.4729   14.2755   22.8000 C   0  0  0  0  0  0  0  0  0  0  0  0
   10.2929   15.0219   21.0183 N   0  0  0  0  0  0  0  0  0  0  0  0
   10.1194   14.5691   19.7198 C   0  0  0  0  0  0  0  0  0  0  0  0
   11.0727   14.9096   18.6093 C   0  0  0  0  0  0  0  0  0  0  0  0
    9.6786   15.4388   18.6151 C   0  0  0  0  0  0  0  0  0  0  0  0
    7.1602   11.4073   25.9046 C   0  0  0  0  0  0  0  0  0  0  0  0
    6.2712   11.9671   26.8258 C   0  0  0  0  0  0  0  0  0  0  0  0
    5.3095   11.1500   27.3538 C   0  0  0  0  0  0  0  0  0  0  0  0
    4.4792   11.6580   28.2644 F   0  0  0  0  0  0  0  0  0  0  0  0
    5.1805    9.8459   26.9278 C   0  0  0  0  0  0  0  0  0  0  0  0
    5.9958    9.3460   25.9053 C   0  0  0  0  0  0  0  0  0  0  0  0
    7.0534   10.1082   25.4337 C   0  0  0  0  0  0  0  0  0  0  0  0
  1  2  1  0
  2  3  1  0
  3  4  2  0
  4  5  1  0
  5  6  2  0
  5  7  1  0
  7  8  1  0
  8  9  1  0
 10  9  1  6
 10 11  1  0
 11 12  1  0
 12 13  1  0
 14 13  1  1
 14 15  1  0
 14 16  1  0
 16 17  1  0
 17 18  1  0
 18 19  1  0
  4 20  1  0
 20 21  2  0
 21 22  1  0
 22 23  1  0
 22 24  2  0
 24 25  1  0
 25 26  2  0
 26  2  1  0
 15  8  1  0
 19 17  1  0
 26 20  1  0
 16 10  1  0
M  END
>  <alias>  (397) 
None

>  <rmsd(smina/fragmenstein)>  (397) 
0.645

>  <smiles>  (397) 
Cn1nc(C(=O)NC2C[C@@H]3CCC[C@@H](C2)N3C2CC2)c2cc(F)ccc21

>  <gnina_score>  (397) 
6.104

>  <inspiration_score>  (397) 
None

>  <energy_score>  (397) 
-2.472743

>  <distance_score>  (397) 
1.948742

>  <gnina_score_min>  (397) 
5.993

>  <inchikey>  (397) 
UATQIHUZUIOHMW-HOTGVXAUSA-N

>  <exports>  (397) 
['/opt/xchem-fragalysis-2/maxwin/BulkDock/OUTPUTS/openbind_a71ev2a_c2_elabs_1LOUU54.sdf', '/opt/xchem-fragalysis-2/maxwin/BulkDock/OUTPUTS/openbind_a71ev2a_c2_elabs_1LSYIDY.sdf']

>  <name>  (397) 
P570721

>  <ref_pdb>  (397) 
A2339a

>  <subsites>  (397) 
None

>  <HIPPO Pose ID>  (397) 
570721

>  <ref_mols>  (397) 
A2339a

>  <HIPPO Compound ID>  (397) 
412069

>  <tags>  (397) 
openbind_a71ev2a_c2_elabs,syndirella_product,openbind_a71ev2a_c2_elabs_scored,BulkDock Fragalysis export,openbind_a71ev2a_c2_elabs_scored_top80percent,openbind_a71ev2a_c2_elabs_scored_top80percent_despaghettified,syndirella_placed

>  <smina_score_min>  (397) 
-4.158

$$$$
P570722
     RDKit          3D

 26 29  0  0  0  0  0  0  0  0999 V2000
   12.4970   14.4052   19.9461 C   0  0  0  0  0  0  0  0  0  0  0  0
   12.3745   15.3721   20.9696 O   0  0  0  0  0  0  0  0  0  0  0  0
   11.7784   14.9068   22.1022 C   0  0  0  0  0  0  0  0  0  0  0  0
   12.3682   13.9659   22.9326 C   0  0  0  0  0  0  0  0  0  0  0  0
   11.8964   13.6815   24.2066 C   0  0  0  0  0  0  0  0  0  0  0  0
   10.8061   14.3761   24.6729 C   0  0  0  0  0  0  0  0  0  0  0  0
   10.1419   15.2235   23.7904 C   0  0  0  0  0  0  0  0  0  0  0  0
   10.5605   15.4469   22.4557 C   0  0  0  0  0  0  0  0  0  0  0  0
    9.6063   15.9264   21.3531 C   0  0  1  0  0  0  0  0  0  0  0  0
    9.5720   17.3703   20.9498 C   0  0  0  0  0  0  0  0  0  0  0  0
    9.3390   14.9790   20.2099 C   0  0  0  0  0  0  0  0  0  0  0  0
    8.3084   15.1209   21.2807 C   0  0  1  0  0  0  0  0  0  0  0  0
    8.1635   14.0207   22.1396 N   0  0  0  0  0  0  0  0  0  0  0  0
    7.4470   13.8967   23.4799 C   0  0  0  0  0  0  0  0  0  0  0  0
    6.7923   14.6638   24.0594 O   0  0  0  0  0  0  0  0  0  0  0  0
    7.8327   12.5776   24.0008 C   0  0  0  0  0  0  0  0  0  0  0  0
    8.7031   11.7686   23.3497 N   0  0  0  0  0  0  0  0  0  0  0  0
    8.5499   10.5710   23.9504 N   0  0  0  0  0  0  0  0  0  0  0  0
    9.2350    9.4094   23.4149 C   0  0  0  0  0  0  0  0  0  0  0  0
    7.6067   10.6110   24.9491 C   0  0  0  0  0  0  0  0  0  0  0  0
    6.9589    9.6244   25.6796 C   0  0  0  0  0  0  0  0  0  0  0  0
    6.0312   10.0224   26.6490 C   0  0  0  0  0  0  0  0  0  0  0  0
    5.7812   11.3677   26.8747 C   0  0  0  0  0  0  0  0  0  0  0  0
    4.9225   11.7377   27.8286 F   0  0  0  0  0  0  0  0  0  0  0  0
    6.3746   12.3510   26.1080 C   0  0  0  0  0  0  0  0  0  0  0  0
    7.2700   11.9479   25.1121 C   0  0  0  0  0  0  0  0  0  0  0  0
  1  2  1  0
  2  3  1  0
  3  4  2  0
  4  5  1  0
  5  6  2  0
  6  7  1  0
  7  8  2  0
  8  9  1  0
  9 10  1  6
  9 11  1  0
 11 12  1  0
 12 13  1  1
 13 14  1  0
 14 15  2  0
 14 16  1  0
 16 17  2  0
 17 18  1  0
 18 19  1  0
 18 20  1  0
 20 21  2  0
 21 22  1  0
 22 23  2  0
 23 24  1  0
 23 25  1  0
 25 26  2  0
  8  3  1  0
 12  9  1  0
 26 16  1  0
 26 20  1  0
M  END
>  <alias>  (398) 
None

>  <rmsd(smina/fragmenstein)>  (398) 
0.308

>  <smiles>  (398) 
COc1ccccc1[C@@]1(C)C[C@H]1NC(=O)c1nn(C)c2ccc(F)cc12

>  <gnina_score>  (398) 
5.998

>  <inspiration_score>  (398) 
None

>  <energy_score>  (398) 
-7.366063

>  <distance_score>  (398) 
1.70682

>  <gnina_score_min>  (398) 
5.955

>  <inchikey>  (398) 
LJFGDCPZRGQTTP-YLJYHZDGSA-N

>  <exports>  (398) 
['/opt/xchem-fragalysis-2/maxwin/BulkDock/OUTPUTS/openbind_a71ev2a_c2_elabs_1LOUU54.sdf', '/opt/xchem-fragalysis-2/maxwin/BulkDock/OUTPUTS/openbind_a71ev2a_c2_elabs_1LSYIDY.sdf']

>  <name>  (398) 
P570722

>  <ref_pdb>  (398) 
A2339a

>  <subsites>  (398) 
None

>  <HIPPO Pose ID>  (398) 
570722

>  <ref_mols>  (398) 
A2339a

>  <HIPPO Compound ID>  (398) 
412070

>  <tags>  (398) 
openbind_a71ev2a_c2_elabs,syndirella_product,openbind_a71ev2a_c2_elabs_scored,BulkDock Fragalysis export,openbind_a71ev2a_c2_elabs_scored_top80percent,openbind_a71ev2a_c2_elabs_scored_top80percent_despaghettified,syndirella_placed

>  <smina_score_min>  (398) 
-6.732

$$$$
P570724
     RDKit          3D

 26 29  0  0  0  0  0  0  0  0999 V2000
    8.9323    8.9641   23.6924 C   0  0  0  0  0  0  0  0  0  0  0  0
    8.4269   10.2375   24.1592 N   0  0  0  0  0  0  0  0  0  0  0  0
    9.0471   11.3551   23.7551 N   0  0  0  0  0  0  0  0  0  0  0  0
    8.5277   12.3249   24.5421 C   0  0  0  0  0  0  0  0  0  0  0  0
    9.1900   13.6212   24.6533 C   0  0  0  0  0  0  0  0  0  0  0  0
    8.8567   14.5023   25.3324 O   0  0  0  0  0  0  0  0  0  0  0  0
   10.4142   13.4663   23.7720 N   0  0  0  0  0  0  0  0  0  0  0  0
   11.5176   14.2936   23.6039 C   0  0  1  0  0  0  0  0  0  0  0  0
   12.6625   13.5405   23.0707 C   0  0  0  0  0  0  0  0  0  0  0  0
   12.0834   14.6031   22.2192 C   0  0  2  0  0  0  0  0  0  0  0  0
   12.9819   15.7224   21.8838 C   0  0  0  0  0  0  0  0  0  0  0  0
   11.1052   14.5562   21.1331 C   0  0  0  0  0  0  0  0  0  0  0  0
   11.5651   14.3163   19.8397 C   0  0  0  0  0  0  0  0  0  0  0  0
   12.7453   13.7179   19.6462 F   0  0  0  0  0  0  0  0  0  0  0  0
   10.9117   14.8200   18.7573 C   0  0  0  0  0  0  0  0  0  0  0  0
    9.7406   15.5237   18.9709 C   0  0  0  0  0  0  0  0  0  0  0  0
    9.2587   15.7611   20.2512 C   0  0  0  0  0  0  0  0  0  0  0  0
    9.9148   15.2461   21.3148 C   0  0  0  0  0  0  0  0  0  0  0  0
    9.4801   15.6074   22.5281 F   0  0  0  0  0  0  0  0  0  0  0  0
    7.4544   11.8643   25.3017 C   0  0  0  0  0  0  0  0  0  0  0  0
    6.5862   12.4562   26.2261 C   0  0  0  0  0  0  0  0  0  0  0  0
    5.7127   11.6315   26.9104 C   0  0  0  0  0  0  0  0  0  0  0  0
    4.9022   12.1743   27.8228 F   0  0  0  0  0  0  0  0  0  0  0  0
    5.6831   10.2633   26.6942 C   0  0  0  0  0  0  0  0  0  0  0  0
    6.5326    9.6780   25.7549 C   0  0  0  0  0  0  0  0  0  0  0  0
    7.4305   10.4920   25.0727 C   0  0  0  0  0  0  0  0  0  0  0  0
  1  2  1  0
  2  3  1  0
  3  4  2  0
  4  5  1  0
  5  6  2  0
  5  7  1  0
  8  7  1  6
  8  9  1  0
  9 10  1  0
 10 11  1  1
 10 12  1  0
 12 13  2  0
 13 14  1  0
 13 15  1  0
 15 16  2  0
 16 17  1  0
 17 18  2  0
 18 19  1  0
  4 20  1  0
 20 21  2  0
 21 22  1  0
 22 23  1  0
 22 24  2  0
 24 25  1  0
 25 26  2  0
 26  2  1  0
 10  8  1  0
 18 12  1  0
 26 20  1  0
M  END
>  <alias>  (399) 
None

>  <rmsd(smina/fragmenstein)>  (399) 
0.326

>  <smiles>  (399) 
Cn1nc(C(=O)N[C@H]2C[C@@]2(C)c2c(F)cccc2F)c2cc(F)ccc21

>  <gnina_score>  (399) 
6.176

>  <inspiration_score>  (399) 
None

>  <energy_score>  (399) 
-1.399362

>  <distance_score>  (399) 
1.450088

>  <gnina_score_min>  (399) 
6.252

>  <inchikey>  (399) 
JPWTUDYKENJDGI-HNAYVOBHSA-N

>  <exports>  (399) 
['/opt/xchem-fragalysis-2/maxwin/BulkDock/OUTPUTS/openbind_a71ev2a_c2_elabs_1LOUU54.sdf', '/opt/xchem-fragalysis-2/maxwin/BulkDock/OUTPUTS/openbind_a71ev2a_c2_elabs_1LSYIDY.sdf']

>  <name>  (399) 
P570724

>  <ref_pdb>  (399) 
A2339a

>  <subsites>  (399) 
None

>  <HIPPO Pose ID>  (399) 
570724

>  <ref_mols>  (399) 
A2339a

>  <HIPPO Compound ID>  (399) 
412071

>  <tags>  (399) 
openbind_a71ev2a_c2_elabs,syndirella_product,openbind_a71ev2a_c2_elabs_scored,BulkDock Fragalysis export,openbind_a71ev2a_c2_elabs_scored_top80percent,openbind_a71ev2a_c2_elabs_scored_6plus,openbind_a71ev2a_c2_elabs_scored_top80percent_despaghettified,syndirella_placed

>  <smina_score_min>  (399) 
-5.613

$$$$
P570725
     RDKit          3D

 26 30  0  0  0  0  0  0  0  0999 V2000
    8.8405    8.8049   23.7197 C   0  0  0  0  0  0  0  0  0  0  0  0
    8.4575   10.0804   24.2793 N   0  0  0  0  0  0  0  0  0  0  0  0
    9.2371   11.1332   24.0160 N   0  0  0  0  0  0  0  0  0  0  0  0
    8.7760   12.0994   24.8360 C   0  0  0  0  0  0  0  0  0  0  0  0
    9.4570   13.3838   24.9105 C   0  0  0  0  0  0  0  0  0  0  0  0
    9.0273   14.3264   25.4341 O   0  0  0  0  0  0  0  0  0  0  0  0
   10.7242   13.2015   24.0934 N   0  0  0  0  0  0  0  0  0  0  0  0
   11.6764   14.1381   23.6667 C   0  0  0  0  0  0  0  0  0  0  0  0
   11.1653   14.5478   22.2650 C   0  0  1  0  0  0  0  0  0  0  0  0
    9.8216   13.9002   21.8197 C   0  0  0  0  0  0  0  0  0  0  0  0
    8.9692   14.7116   20.8634 C   0  0  1  0  0  0  0  0  0  0  0  0
    8.1414   15.7483   21.6498 C   0  0  0  0  0  0  0  0  0  0  0  0
    8.8102   17.0337   21.2440 C   0  0  0  0  0  0  0  0  0  0  0  0
   10.2117   16.5665   20.8980 C   0  0  1  0  0  0  0  0  0  0  0  0
   11.0573   16.0521   22.0934 C   0  0  0  0  0  0  0  0  0  0  0  0
    9.8345   15.4988   19.9891 N   0  0  0  0  0  0  0  0  0  0  0  0
   10.8648   14.7216   19.3149 C   0  0  0  0  0  0  0  0  0  0  0  0
   12.3353   14.8549   19.4911 C   0  0  0  0  0  0  0  0  0  0  0  0
   11.6844   15.2865   18.2242 C   0  0  0  0  0  0  0  0  0  0  0  0
    7.5928   11.7310   25.4686 C   0  0  0  0  0  0  0  0  0  0  0  0
    6.6994   12.3858   26.3247 C   0  0  0  0  0  0  0  0  0  0  0  0
    5.7131   11.6284   26.9246 C   0  0  0  0  0  0  0  0  0  0  0  0
    4.8890   12.2203   27.7931 F   0  0  0  0  0  0  0  0  0  0  0  0
    5.5895   10.2728   26.6738 C   0  0  0  0  0  0  0  0  0  0  0  0
    6.4308    9.6413   25.7564 C   0  0  0  0  0  0  0  0  0  0  0  0
    7.4449   10.3829   25.1613 C   0  0  0  0  0  0  0  0  0  0  0  0
  1  2  1  0
  2  3  1  0
  3  4  2  0
  4  5  1  0
  5  6  2  0
  5  7  1  0
  7  8  1  0
  9  8  1  1
  9 10  1  0
 11 10  1  1
 11 12  1  0
 12 13  1  0
 14 13  1  1
 14 15  1  0
 14 16  1  0
 16 17  1  0
 17 18  1  0
 18 19  1  0
  4 20  1  0
 20 21  2  0
 21 22  1  0
 22 23  1  0
 22 24  2  0
 24 25  1  0
 25 26  2  0
 26  2  1  0
 15  9  1  0
 19 17  1  0
 26 20  1  0
 16 11  1  0
M  END
>  <alias>  (400) 
None

>  <rmsd(smina/fragmenstein)>  (400) 
0.518

>  <smiles>  (400) 
Cn1nc(C(=O)NC[C@H]2C[C@H]3CC[C@@H](C2)N3C2CC2)c2cc(F)ccc21

>  <gnina_score>  (400) 
6.175

>  <inspiration_score>  (400) 
None

>  <energy_score>  (400) 
-9.147455

>  <distance_score>  (400) 
1.42163

>  <gnina_score_min>  (400) 
5.957

>  <inchikey>  (400) 
ROFVZZCIYBLVPT-BZWBGLRVSA-N

>  <exports>  (400) 
['/opt/xchem-fragalysis-2/maxwin/BulkDock/OUTPUTS/openbind_a71ev2a_c2_elabs_1LOUU54.sdf', '/opt/xchem-fragalysis-2/maxwin/BulkDock/OUTPUTS/openbind_a71ev2a_c2_elabs_1LSYIDY.sdf']

>  <name>  (400) 
P570725

>  <ref_pdb>  (400) 
A2339a

>  <subsites>  (400) 
None

>  <HIPPO Pose ID>  (400) 
570725

>  <ref_mols>  (400) 
A2339a

>  <HIPPO Compound ID>  (400) 
412076

>  <tags>  (400) 
openbind_a71ev2a_c2_elabs,syndirella_product,openbind_a71ev2a_c2_elabs_scored,BulkDock Fragalysis export,openbind_a71ev2a_c2_elabs_scored_top80percent,openbind_a71ev2a_c2_elabs_scored_top80percent_despaghettified,syndirella_placed

>  <smina_score_min>  (400) 
-5.029

$$$$
P570728
     RDKit          3D

 26 29  0  0  0  0  0  0  0  0999 V2000
    8.6042   18.5567   19.8858 C   0  0  0  0  0  0  0  0  0  0  0  0
    9.1380   17.8590   21.1037 C   0  0  0  0  0  0  0  0  0  0  0  0
    8.9920   16.3385   21.2792 C   0  0  1  0  0  0  0  0  0  0  0  0
    7.6079   15.8231   21.8544 C   0  0  0  0  0  0  0  0  0  0  0  0
    7.0123   14.6383   21.4129 C   0  0  0  0  0  0  0  0  0  0  0  0
    5.6913   14.2761   21.7270 C   0  0  0  0  0  0  0  0  0  0  0  0
    4.9528   15.0493   22.6085 C   0  0  0  0  0  0  0  0  0  0  0  0
    3.1239   14.7021   22.9250 Br  0  0  0  0  0  0  0  0  0  0  0  0
    5.5551   16.1287   23.2151 C   0  0  0  0  0  0  0  0  0  0  0  0
    6.8529   16.4946   22.8322 C   0  0  0  0  0  0  0  0  0  0  0  0
    9.8765   15.5365   20.3342 C   0  0  0  0  0  0  0  0  0  0  0  0
   10.2099   15.5026   21.7859 C   0  0  2  0  0  0  0  0  0  0  0  0
    9.9697   14.2862   22.4734 N   0  0  0  0  0  0  0  0  0  0  0  0
    9.4633   14.0295   23.9026 C   0  0  0  0  0  0  0  0  0  0  0  0
    9.2360   14.7758   24.7703 O   0  0  0  0  0  0  0  0  0  0  0  0
    9.1727   12.5871   24.0365 C   0  0  0  0  0  0  0  0  0  0  0  0
    9.7570   11.6395   23.2767 N   0  0  0  0  0  0  0  0  0  0  0  0
    9.1669   10.4847   23.6655 N   0  0  0  0  0  0  0  0  0  0  0  0
    9.6158    9.2260   23.1050 C   0  0  0  0  0  0  0  0  0  0  0  0
    8.1682   10.6695   24.5922 C   0  0  0  0  0  0  0  0  0  0  0  0
    7.2957    9.7819   25.2305 C   0  0  0  0  0  0  0  0  0  0  0  0
    6.3498   10.3100   26.1129 C   0  0  0  0  0  0  0  0  0  0  0  0
    6.2905   11.6784   26.3404 C   0  0  0  0  0  0  0  0  0  0  0  0
    5.3935   12.1607   27.2098 F   0  0  0  0  0  0  0  0  0  0  0  0
    7.1639   12.5601   25.7119 C   0  0  0  0  0  0  0  0  0  0  0  0
    8.1350   12.0373   24.8372 C   0  0  0  0  0  0  0  0  0  0  0  0
  1  2  1  0
  3  2  1  6
  3  4  1  0
  4  5  2  0
  5  6  1  0
  6  7  2  0
  7  8  1  0
  7  9  1  0
  9 10  2  0
  3 11  1  0
 11 12  1  0
 12 13  1  1
 13 14  1  0
 14 15  2  0
 14 16  1  0
 16 17  2  0
 17 18  1  0
 18 19  1  0
 18 20  1  0
 20 21  2  0
 21 22  1  0
 22 23  2  0
 23 24  1  0
 23 25  1  0
 25 26  2  0
 12  3  1  0
 26 16  1  0
 10  4  1  0
 26 20  1  0
M  END
>  <alias>  (401) 
None

>  <rmsd(smina/fragmenstein)>  (401) 
1.158

>  <smiles>  (401) 
CC[C@@]1(c2ccc(Br)cc2)C[C@@H]1NC(=O)c1nn(C)c2ccc(F)cc12

>  <gnina_score>  (401) 
6.084

>  <inspiration_score>  (401) 
None

>  <energy_score>  (401) 
-13.60004

>  <distance_score>  (401) 
0.959217

>  <gnina_score_min>  (401) 
6.421

>  <inchikey>  (401) 
IEQGMTPJBQRYCV-PXNSSMCTSA-N

>  <exports>  (401) 
['/opt/xchem-fragalysis-2/maxwin/BulkDock/OUTPUTS/openbind_a71ev2a_c2_elabs_1LOUU54.sdf', '/opt/xchem-fragalysis-2/maxwin/BulkDock/OUTPUTS/openbind_a71ev2a_c2_elabs_1LSYIDY.sdf']

>  <name>  (401) 
P570728

>  <ref_pdb>  (401) 
A2339a

>  <subsites>  (401) 
None

>  <HIPPO Pose ID>  (401) 
570728

>  <ref_mols>  (401) 
A2339a

>  <HIPPO Compound ID>  (401) 
412106

>  <tags>  (401) 
openbind_a71ev2a_c2_elabs,syndirella_product,openbind_a71ev2a_c2_elabs_scored,BulkDock Fragalysis export,openbind_a71ev2a_c2_elabs_scored_top80percent,openbind_a71ev2a_c2_elabs_scored_6plus,openbind_a71ev2a_c2_elabs_scored_top80percent_despaghettified,syndirella_placed

>  <smina_score_min>  (401) 
-6.681

$$$$
P570731
     RDKit          3D

 26 29  0  0  0  0  0  0  0  0999 V2000
    9.4702    8.9853   23.2465 C   0  0  0  0  0  0  0  0  0  0  0  0
    9.0809   10.2281   23.8763 N   0  0  0  0  0  0  0  0  0  0  0  0
    9.7276   11.3629   23.5270 N   0  0  0  0  0  0  0  0  0  0  0  0
    9.2219   12.2934   24.3558 C   0  0  0  0  0  0  0  0  0  0  0  0
    9.3781   13.7169   24.1314 C   0  0  0  0  0  0  0  0  0  0  0  0
    9.6826   14.5148   24.9194 O   0  0  0  0  0  0  0  0  0  0  0  0
    8.9518   13.8748   22.6819 N   0  0  0  0  0  0  0  0  0  0  0  0
    8.7189   15.0238   21.9239 C   0  0  2  0  0  0  0  0  0  0  0  0
    7.2432   15.3880   22.1981 C   0  0  0  0  0  0  0  0  0  0  0  0
    6.1812   14.7546   21.5326 C   0  0  0  0  0  0  0  0  0  0  0  0
    4.8299   14.9495   21.8599 C   0  0  0  0  0  0  0  0  0  0  0  0
    4.4938   15.7707   22.9218 C   0  0  0  0  0  0  0  0  0  0  0  0
    2.8454   16.0338   23.3278 Cl  0  0  0  0  0  0  0  0  0  0  0  0
    5.5009   16.3484   23.6733 C   0  0  0  0  0  0  0  0  0  0  0  0
    6.8436   16.1258   23.3280 C   0  0  0  0  0  0  0  0  0  0  0  0
    9.3752   14.9798   20.5478 C   0  0  0  0  0  0  0  0  0  0  0  0
    9.7638   16.0161   21.5143 C   0  0  0  0  0  0  0  0  0  0  0  0
   11.0311   15.9895   22.0558 F   0  0  0  0  0  0  0  0  0  0  0  0
    9.4746   17.3182   21.1778 F   0  0  0  0  0  0  0  0  0  0  0  0
    8.1235   11.7977   25.0933 C   0  0  0  0  0  0  0  0  0  0  0  0
    7.1393   12.3787   25.9143 C   0  0  0  0  0  0  0  0  0  0  0  0
    6.1789   11.5513   26.4782 C   0  0  0  0  0  0  0  0  0  0  0  0
    5.2744   12.0827   27.3090 F   0  0  0  0  0  0  0  0  0  0  0  0
    6.1672   10.1886   26.2278 C   0  0  0  0  0  0  0  0  0  0  0  0
    7.1144    9.6219   25.3698 C   0  0  0  0  0  0  0  0  0  0  0  0
    8.0723   10.4474   24.7866 C   0  0  0  0  0  0  0  0  0  0  0  0
  1  2  1  0
  2  3  1  0
  3  4  2  0
  4  5  1  0
  5  6  2  0
  5  7  1  0
  8  7  1  1
  8  9  1  0
  9 10  2  0
 10 11  1  0
 11 12  2  0
 12 13  1  0
 12 14  1  0
 14 15  2  0
  8 16  1  0
 16 17  1  0
 17 18  1  0
 17 19  1  0
  4 20  1  0
 20 21  2  0
 21 22  1  0
 22 23  1  0
 22 24  2  0
 24 25  1  0
 25 26  2  0
 26  2  1  0
 17  8  1  0
 26 20  1  0
 15  9  1  0
M  END
>  <alias>  (402) 
None

>  <rmsd(smina/fragmenstein)>  (402) 
0.711

>  <smiles>  (402) 
Cn1nc(C(=O)N[C@]2(c3ccc(Cl)cc3)CC2(F)F)c2cc(F)ccc21

>  <gnina_score>  (402) 
6.036

>  <inspiration_score>  (402) 
None

>  <energy_score>  (402) 
-25.307399

>  <distance_score>  (402) 
1.144477

>  <gnina_score_min>  (402) 
6.08

>  <inchikey>  (402) 
GMHOFQWENIXSFZ-KRWDZBQOSA-N

>  <exports>  (402) 
['/opt/xchem-fragalysis-2/maxwin/BulkDock/OUTPUTS/openbind_a71ev2a_c2_elabs_1LOUU54.sdf', '/opt/xchem-fragalysis-2/maxwin/BulkDock/OUTPUTS/openbind_a71ev2a_c2_elabs_1LSYIDY.sdf']

>  <name>  (402) 
P570731

>  <ref_pdb>  (402) 
A2339a

>  <subsites>  (402) 
None

>  <HIPPO Pose ID>  (402) 
570731

>  <ref_mols>  (402) 
A2339a

>  <HIPPO Compound ID>  (402) 
412109

>  <tags>  (402) 
openbind_a71ev2a_c2_elabs,syndirella_product,openbind_a71ev2a_c2_elabs_scored,BulkDock Fragalysis export,openbind_a71ev2a_c2_elabs_scored_top80percent,openbind_a71ev2a_c2_elabs_scored_6plus,openbind_a71ev2a_c2_elabs_scored_top80percent_despaghettified,syndirella_placed

>  <smina_score_min>  (402) 
-7.203

$$$$
P570735
     RDKit          3D

 27 31  0  0  0  0  0  0  0  0999 V2000
    9.3416    8.2890   23.4751 C   0  0  0  0  0  0  0  0  0  0  0  0
    8.9165    9.6206   23.7966 N   0  0  0  0  0  0  0  0  0  0  0  0
    9.5287   10.6221   23.1548 N   0  0  0  0  0  0  0  0  0  0  0  0
    8.7047   11.6392   23.3968 C   0  0  0  0  0  0  0  0  0  0  0  0
    8.7820   12.8781   22.7051 C   0  0  0  0  0  0  0  0  0  0  0  0
    7.8329   13.4663   22.3870 O   0  0  0  0  0  0  0  0  0  0  0  0
   10.2510   13.2465   22.6007 N   0  0  0  0  0  0  0  0  0  0  0  0
   10.8564   14.4178   22.1846 C   0  0  0  0  0  0  0  0  0  0  0  0
   10.5652   15.4104   23.2992 C   0  0  2  0  0  0  0  0  0  0  0  0
   11.2000   15.0118   24.6424 C   0  0  0  0  0  0  0  0  0  0  0  0
   10.2863   14.3564   25.6473 C   0  0  0  0  0  0  0  0  0  0  0  0
    8.9826   15.0625   25.7110 C   0  0  0  0  0  0  0  0  0  0  0  0
    8.2524   15.1792   26.9015 C   0  0  0  0  0  0  0  0  0  0  0  0
    6.9832   15.7598   26.8955 C   0  0  0  0  0  0  0  0  0  0  0  0
    6.4297   16.2048   25.6981 C   0  0  0  0  0  0  0  0  0  0  0  0
    7.1543   16.0837   24.5145 C   0  0  0  0  0  0  0  0  0  0  0  0
    8.4423   15.5423   24.5298 C   0  0  0  0  0  0  0  0  0  0  0  0
    9.1320   15.5744   23.3490 O   0  0  0  0  0  0  0  0  0  0  0  0
   12.0733   14.5002   21.3144 C   0  0  0  0  0  0  0  0  0  0  0  0
   10.7393   14.9100   20.7629 C   0  0  0  0  0  0  0  0  0  0  0  0
    7.8490   11.4176   24.4851 C   0  0  0  0  0  0  0  0  0  0  0  0
    6.9588   12.1901   25.2551 C   0  0  0  0  0  0  0  0  0  0  0  0
    6.1750   11.5615   26.2094 C   0  0  0  0  0  0  0  0  0  0  0  0
    5.3738   12.2871   26.9996 F   0  0  0  0  0  0  0  0  0  0  0  0
    6.1931   10.1885   26.3315 C   0  0  0  0  0  0  0  0  0  0  0  0
    7.0581    9.4312   25.5371 C   0  0  0  0  0  0  0  0  0  0  0  0
    7.9384   10.0540   24.6649 C   0  0  0  0  0  0  0  0  0  0  0  0
  1  2  1  0
  2  3  1  0
  3  4  2  0
  4  5  1  0
  5  6  2  0
  5  7  1  0
  7  8  1  0
  9  8  1  6
  9 10  1  0
 10 11  1  0
 11 12  1  0
 12 13  2  0
 13 14  1  0
 14 15  2  0
 15 16  1  0
 16 17  2  0
 17 18  1  0
  8 19  1  0
 19 20  1  0
  4 21  1  0
 21 22  2  0
 22 23  1  0
 23 24  1  0
 23 25  2  0
 25 26  1  0
 26 27  2  0
 27  2  1  0
 20  8  1  0
 27 21  1  0
 18  9  1  0
 17 12  1  0
M  END
>  <alias>  (403) 
None

>  <rmsd(smina/fragmenstein)>  (403) 
0.466

>  <smiles>  (403) 
Cn1nc(C(=O)NC2([C@@H]3CCc4ccccc4O3)CC2)c2cc(F)ccc21

>  <gnina_score>  (403) 
6.347

>  <inspiration_score>  (403) 
None

>  <energy_score>  (403) 
-16.955182

>  <distance_score>  (403) 
0.901585

>  <gnina_score_min>  (403) 
6.327

>  <inchikey>  (403) 
GOJPJCOJTFVZSZ-SFHVURJKSA-N

>  <exports>  (403) 
['/opt/xchem-fragalysis-2/maxwin/BulkDock/OUTPUTS/openbind_a71ev2a_c2_elabs_1LOUU54.sdf', '/opt/xchem-fragalysis-2/maxwin/BulkDock/OUTPUTS/openbind_a71ev2a_c2_elabs_1LSYIDY.sdf']

>  <name>  (403) 
P570735

>  <ref_pdb>  (403) 
A2339a

>  <subsites>  (403) 
None

>  <HIPPO Pose ID>  (403) 
570735

>  <ref_mols>  (403) 
A2339a

>  <HIPPO Compound ID>  (403) 
412133

>  <tags>  (403) 
openbind_a71ev2a_c2_elabs,syndirella_product,openbind_a71ev2a_c2_elabs_scored,BulkDock Fragalysis export,openbind_a71ev2a_c2_elabs_scored_top80percent,openbind_a71ev2a_c2_elabs_scored_6plus,openbind_a71ev2a_c2_elabs_scored_top80percent_despaghettified,syndirella_placed

>  <smina_score_min>  (403) 
-5.037

$$$$
P570746
     RDKit          3D

 27 30  0  0  0  0  0  0  0  0999 V2000
    9.4827    8.8129   23.1836 C   0  0  0  0  0  0  0  0  0  0  0  0
    9.1518   10.0726   23.8081 N   0  0  0  0  0  0  0  0  0  0  0  0
    9.8509   11.1671   23.4461 N   0  0  0  0  0  0  0  0  0  0  0  0
    9.3886   12.1296   24.2559 C   0  0  0  0  0  0  0  0  0  0  0  0
    9.6406   13.5342   24.0435 C   0  0  0  0  0  0  0  0  0  0  0  0
   10.0916   14.2819   24.8116 O   0  0  0  0  0  0  0  0  0  0  0  0
    9.0829   13.7684   22.6480 N   0  0  0  0  0  0  0  0  0  0  0  0
    8.8746   14.9448   21.9467 C   0  0  0  0  0  0  0  0  0  0  0  0
    7.4575   15.3785   22.3436 C   0  0  0  0  0  0  0  0  0  0  0  0
    7.2028   15.9519   23.6033 C   0  0  0  0  0  0  0  0  0  0  0  0
    5.9216   16.2839   24.0594 C   0  0  0  0  0  0  0  0  0  0  0  0
    4.8158   15.9842   23.2806 C   0  0  0  0  0  0  0  0  0  0  0  0
    3.5222   16.2941   23.5857 O   0  0  0  0  0  0  0  0  0  0  0  0
    3.3622   17.3655   24.5024 C   0  0  0  0  0  0  0  0  0  0  0  0
    3.5151   16.8894   25.7642 F   0  0  0  0  0  0  0  0  0  0  0  0
    2.0713   17.7827   24.4055 F   0  0  0  0  0  0  0  0  0  0  0  0
    5.0111   15.2640   22.1083 C   0  0  0  0  0  0  0  0  0  0  0  0
    6.3086   14.9504   21.6710 C   0  0  0  0  0  0  0  0  0  0  0  0
    9.9731   15.9218   21.6273 C   0  0  0  0  0  0  0  0  0  0  0  0
    9.4719   15.0116   20.5636 C   0  0  0  0  0  0  0  0  0  0  0  0
    8.2488   11.7060   24.9805 C   0  0  0  0  0  0  0  0  0  0  0  0
    7.2791   12.3456   25.7777 C   0  0  0  0  0  0  0  0  0  0  0  0
    6.2894   11.5688   26.3652 C   0  0  0  0  0  0  0  0  0  0  0  0
    5.4035   12.1506   27.1828 F   0  0  0  0  0  0  0  0  0  0  0  0
    6.2362   10.2000   26.1598 C   0  0  0  0  0  0  0  0  0  0  0  0
    7.1651    9.5787   25.3201 C   0  0  0  0  0  0  0  0  0  0  0  0
    8.1485   10.3518   24.7091 C   0  0  0  0  0  0  0  0  0  0  0  0
  1  2  1  0
  2  3  1  0
  3  4  2  0
  4  5  1  0
  5  6  2  0
  5  7  1  0
  7  8  1  0
  8  9  1  0
  9 10  2  0
 10 11  1  0
 11 12  2  0
 12 13  1  0
 13 14  1  0
 14 15  1  0
 14 16  1  0
 12 17  1  0
 17 18  2  0
  8 19  1  0
 19 20  1  0
  4 21  1  0
 21 22  2  0
 22 23  1  0
 23 24  1  0
 23 25  2  0
 25 26  1  0
 26 27  2  0
 27  2  1  0
 20  8  1  0
 27 21  1  0
 18  9  1  0
M  END
>  <alias>  (404) 
None

>  <rmsd(smina/fragmenstein)>  (404) 
1.015

>  <smiles>  (404) 
Cn1nc(C(=O)NC2(c3ccc(OC(F)F)cc3)CC2)c2cc(F)ccc21

>  <gnina_score>  (404) 
5.988

>  <inspiration_score>  (404) 
None

>  <energy_score>  (404) 
-28.166617

>  <distance_score>  (404) 
1.04679

>  <gnina_score_min>  (404) 
6.031

>  <inchikey>  (404) 
ANHAZMVUYCRRHR-UHFFFAOYSA-N

>  <exports>  (404) 
['/opt/xchem-fragalysis-2/maxwin/BulkDock/OUTPUTS/openbind_a71ev2a_c2_elabs_1LOUU54.sdf', '/opt/xchem-fragalysis-2/maxwin/BulkDock/OUTPUTS/openbind_a71ev2a_c2_elabs_1LSYIDY.sdf']

>  <name>  (404) 
P570746

>  <ref_pdb>  (404) 
A2339a

>  <subsites>  (404) 
None

>  <HIPPO Pose ID>  (404) 
570746

>  <ref_mols>  (404) 
A2339a

>  <HIPPO Compound ID>  (404) 
412172

>  <tags>  (404) 
openbind_a71ev2a_c2_elabs,syndirella_product,openbind_a71ev2a_c2_elabs_scored,BulkDock Fragalysis export,openbind_a71ev2a_c2_elabs_scored_top80percent,openbind_a71ev2a_c2_elabs_scored_6plus,openbind_a71ev2a_c2_elabs_scored_top80percent_despaghettified,syndirella_placed

>  <smina_score_min>  (404) 
-6.374

$$$$
P570747
     RDKit          3D

 27 30  0  0  0  0  0  0  0  0999 V2000
    7.8889   16.8030   30.3742 C   0  0  0  0  0  0  0  0  0  0  0  0
    8.3746   16.9430   28.9289 C   0  0  0  0  0  0  0  0  0  0  0  0
    9.1876   18.2284   28.7830 C   0  0  0  0  0  0  0  0  0  0  0  0
    9.1967   15.7005   28.5331 C   0  0  0  0  0  0  0  0  0  0  0  0
    9.5905   15.5941   27.0765 C   0  0  0  0  0  0  0  0  0  0  0  0
   10.8918   15.2286   26.7222 C   0  0  0  0  0  0  0  0  0  0  0  0
   11.2326   14.9908   25.3789 C   0  0  0  0  0  0  0  0  0  0  0  0
   10.3584   15.2050   24.3164 C   0  0  0  0  0  0  0  0  0  0  0  0
   10.6698   14.6719   22.9117 C   0  0  0  0  0  0  0  0  0  0  0  0
   10.0904   13.4405   23.0696 N   0  0  0  0  0  0  0  0  0  0  0  0
    8.6804   12.9869   22.8291 C   0  0  0  0  0  0  0  0  0  0  0  0
    7.7750   13.5514   22.3818 O   0  0  0  0  0  0  0  0  0  0  0  0
    8.6122   11.6787   23.3713 C   0  0  0  0  0  0  0  0  0  0  0  0
    9.4183   10.6659   23.0624 N   0  0  0  0  0  0  0  0  0  0  0  0
    8.8646    9.6577   23.7557 N   0  0  0  0  0  0  0  0  0  0  0  0
    9.3319    8.3324   23.4648 C   0  0  0  0  0  0  0  0  0  0  0  0
    7.9024   10.0749   24.6511 C   0  0  0  0  0  0  0  0  0  0  0  0
    7.0456    9.4443   25.5405 C   0  0  0  0  0  0  0  0  0  0  0  0
    6.2011   10.1990   26.3619 C   0  0  0  0  0  0  0  0  0  0  0  0
    6.2043   11.5769   26.2763 C   0  0  0  0  0  0  0  0  0  0  0  0
    5.4347   12.2953   27.1031 F   0  0  0  0  0  0  0  0  0  0  0  0
    6.9833   12.2213   25.3294 C   0  0  0  0  0  0  0  0  0  0  0  0
    7.8122   11.4399   24.4990 C   0  0  0  0  0  0  0  0  0  0  0  0
   11.8339   14.9364   22.0182 C   0  0  0  0  0  0  0  0  0  0  0  0
   10.4781   15.4674   21.6519 C   0  0  0  0  0  0  0  0  0  0  0  0
    9.0265   15.4941   24.7179 C   0  0  0  0  0  0  0  0  0  0  0  0
    8.6482   15.7002   26.0555 C   0  0  0  0  0  0  0  0  0  0  0  0
  1  2  1  0
  2  3  1  0
  2  4  1  0
  4  5  1  0
  5  6  2  0
  6  7  1  0
  7  8  2  0
  8  9  1  0
  9 10  1  0
 10 11  1  0
 11 12  2  0
 11 13  1  0
 13 14  2  0
 14 15  1  0
 15 16  1  0
 15 17  1  0
 17 18  2  0
 18 19  1  0
 19 20  2  0
 20 21  1  0
 20 22  1  0
 22 23  2  0
  9 24  1  0
 24 25  1  0
  8 26  1  0
 26 27  2  0
 27  5  1  0
 25  9  1  0
 23 13  1  0
 23 17  1  0
M  END
>  <alias>  (405) 
None

>  <rmsd(smina/fragmenstein)>  (405) 
0.445

>  <smiles>  (405) 
CC(C)Cc1ccc(C2(NC(=O)c3nn(C)c4ccc(F)cc34)CC2)cc1

>  <gnina_score>  (405) 
6.414

>  <inspiration_score>  (405) 
None

>  <energy_score>  (405) 
-13.086076

>  <distance_score>  (405) 
1.032524

>  <gnina_score_min>  (405) 
6.306

>  <inchikey>  (405) 
QLEZXFOUTGXRSN-UHFFFAOYSA-N

>  <exports>  (405) 
['/opt/xchem-fragalysis-2/maxwin/BulkDock/OUTPUTS/openbind_a71ev2a_c2_elabs_1LOUU54.sdf', '/opt/xchem-fragalysis-2/maxwin/BulkDock/OUTPUTS/openbind_a71ev2a_c2_elabs_1LSYIDY.sdf']

>  <name>  (405) 
P570747

>  <ref_pdb>  (405) 
A2339a

>  <subsites>  (405) 
None

>  <HIPPO Pose ID>  (405) 
570747

>  <ref_mols>  (405) 
A2339a

>  <HIPPO Compound ID>  (405) 
412177

>  <tags>  (405) 
openbind_a71ev2a_c2_elabs,syndirella_product,openbind_a71ev2a_c2_elabs_scored,BulkDock Fragalysis export,openbind_a71ev2a_c2_elabs_scored_top80percent,openbind_a71ev2a_c2_elabs_scored_6plus,openbind_a71ev2a_c2_elabs_scored_top80percent_despaghettified,syndirella_placed

>  <smina_score_min>  (405) 
-5.766

$$$$
P570748
     RDKit          3D

 27 30  0  0  0  0  0  0  0  0999 V2000
    9.3934    8.4010   23.4112 C   0  0  0  0  0  0  0  0  0  0  0  0
    8.8923    9.7071   23.7404 N   0  0  0  0  0  0  0  0  0  0  0  0
    9.4255   10.7604   23.0965 N   0  0  0  0  0  0  0  0  0  0  0  0
    8.5539   11.7267   23.3924 C   0  0  0  0  0  0  0  0  0  0  0  0
    8.5914   13.0490   22.8747 C   0  0  0  0  0  0  0  0  0  0  0  0
    7.6706   13.6296   22.4861 O   0  0  0  0  0  0  0  0  0  0  0  0
   10.0141   13.4868   23.0557 N   0  0  0  0  0  0  0  0  0  0  0  0
   10.5947   14.7171   22.8981 C   0  0  0  0  0  0  0  0  0  0  0  0
   10.3431   15.2455   24.3238 C   0  0  0  0  0  0  0  0  0  0  0  0
   11.2826   15.0084   25.3050 C   0  0  0  0  0  0  0  0  0  0  0  0
   10.9790   15.2916   26.6239 C   0  0  0  0  0  0  0  0  0  0  0  0
    9.7701   15.6882   27.0313 N   0  0  0  0  0  0  0  0  0  0  0  0
    8.8437   15.7016   26.0566 C   0  0  0  0  0  0  0  0  0  0  0  0
    7.1443   15.7330   26.6378 S   0  0  0  0  0  0  0  0  0  0  0  0
    6.9470   17.3614   27.2940 C   0  0  0  0  0  0  0  0  0  0  0  0
    6.2393   15.6075   25.5117 O   0  0  0  0  0  0  0  0  0  0  0  0
    7.0605   14.7976   27.7514 O   0  0  0  0  0  0  0  0  0  0  0  0
    9.0680   15.5172   24.7370 N   0  0  0  0  0  0  0  0  0  0  0  0
   11.7492   14.9820   21.9855 C   0  0  0  0  0  0  0  0  0  0  0  0
   10.3878   15.5170   21.6445 C   0  0  0  0  0  0  0  0  0  0  0  0
    7.7525   11.4288   24.5010 C   0  0  0  0  0  0  0  0  0  0  0  0
    6.8706   12.1495   25.3265 C   0  0  0  0  0  0  0  0  0  0  0  0
    6.1250   11.4598   26.2668 C   0  0  0  0  0  0  0  0  0  0  0  0
    5.2990   12.1246   27.0829 F   0  0  0  0  0  0  0  0  0  0  0  0
    6.2004   10.0847   26.3418 C   0  0  0  0  0  0  0  0  0  0  0  0
    7.0877    9.3879   25.5152 C   0  0  0  0  0  0  0  0  0  0  0  0
    7.9134   10.0703   24.6389 C   0  0  0  0  0  0  0  0  0  0  0  0
  1  2  1  0
  2  3  1  0
  3  4  2  0
  4  5  1  0
  5  6  2  0
  5  7  1  0
  7  8  1  0
  8  9  1  0
  9 10  2  0
 10 11  1  0
 11 12  2  0
 12 13  1  0
 13 14  1  0
 14 15  1  0
 14 16  2  0
 14 17  2  0
 13 18  2  0
  8 19  1  0
 19 20  1  0
  4 21  1  0
 21 22  2  0
 22 23  1  0
 23 24  1  0
 23 25  2  0
 25 26  1  0
 26 27  2  0
 27  2  1  0
 20  8  1  0
 27 21  1  0
 18  9  1  0
M  END
>  <alias>  (406) 
None

>  <rmsd(smina/fragmenstein)>  (406) 
0.447

>  <smiles>  (406) 
Cn1nc(C(=O)NC2(c3ccnc(S(C)(=O)=O)n3)CC2)c2cc(F)ccc21

>  <gnina_score>  (406) 
6.25

>  <inspiration_score>  (406) 
None

>  <energy_score>  (406) 
-9.256898

>  <distance_score>  (406) 
1.046215

>  <gnina_score_min>  (406) 
6.188

>  <inchikey>  (406) 
REWIGHVAZZZYSL-UHFFFAOYSA-N

>  <exports>  (406) 
['/opt/xchem-fragalysis-2/maxwin/BulkDock/OUTPUTS/openbind_a71ev2a_c2_elabs_1LOUU54.sdf', '/opt/xchem-fragalysis-2/maxwin/BulkDock/OUTPUTS/openbind_a71ev2a_c2_elabs_1LSYIDY.sdf']

>  <name>  (406) 
P570748

>  <ref_pdb>  (406) 
A2339a

>  <subsites>  (406) 
None

>  <HIPPO Pose ID>  (406) 
570748

>  <ref_mols>  (406) 
A2339a

>  <HIPPO Compound ID>  (406) 
412178

>  <tags>  (406) 
openbind_a71ev2a_c2_elabs,syndirella_product,openbind_a71ev2a_c2_elabs_scored,BulkDock Fragalysis export,openbind_a71ev2a_c2_elabs_scored_top80percent,openbind_a71ev2a_c2_elabs_scored_6plus,openbind_a71ev2a_c2_elabs_scored_top80percent_despaghettified,syndirella_placed

>  <smina_score_min>  (406) 
-5.421

$$$$
P570752
     RDKit          3D

 27 30  0  0  0  0  0  0  0  0999 V2000
    8.7911    8.8095   23.8057 C   0  0  0  0  0  0  0  0  0  0  0  0
    8.3170   10.0682   24.3322 N   0  0  0  0  0  0  0  0  0  0  0  0
    8.9762   11.1702   23.9728 N   0  0  0  0  0  0  0  0  0  0  0  0
    8.2930   12.1657   24.5664 C   0  0  0  0  0  0  0  0  0  0  0  0
    8.6440   13.5318   24.3049 C   0  0  0  0  0  0  0  0  0  0  0  0
    7.9417   14.4466   24.4368 O   0  0  0  0  0  0  0  0  0  0  0  0
   10.0508   13.4433   23.7471 N   0  0  0  0  0  0  0  0  0  0  0  0
   10.8258   14.3821   23.1754 C   0  0  0  0  0  0  0  0  0  0  0  0
   12.1824   14.1969   23.1327 C   0  0  0  0  0  0  0  0  0  0  0  0
   12.8781   14.9809   22.2564 C   0  0  0  0  0  0  0  0  0  0  0  0
   12.2416   15.7293   21.3125 C   0  0  0  0  0  0  0  0  0  0  0  0
   10.8738   15.7470   21.3002 C   0  0  0  0  0  0  0  0  0  0  0  0
   10.0242   15.8462   19.7775 S   0  0  1  0  0  6  0  0  0  0  0  0
   11.1785   15.1423   18.6223 C   0  0  0  0  0  0  0  0  0  0  0  0
    8.9294   14.9026   19.9266 O   0  0  0  0  0  0  0  0  0  0  0  0
    9.8574   17.3551   19.5705 N   0  0  0  0  0  0  0  0  0  0  0  0
    8.7136   18.0417   20.1548 C   0  0  0  0  0  0  0  0  0  0  0  0
    8.7895   19.3926   20.7055 C   0  0  0  0  0  0  0  0  0  0  0  0
    8.3149   19.2423   19.3241 C   0  0  0  0  0  0  0  0  0  0  0  0
   10.1539   15.2516   22.3480 C   0  0  0  0  0  0  0  0  0  0  0  0
    7.2960   11.7141   25.4073 C   0  0  0  0  0  0  0  0  0  0  0  0
    6.4082   12.3413   26.2856 C   0  0  0  0  0  0  0  0  0  0  0  0
    5.5556   11.5360   27.0101 C   0  0  0  0  0  0  0  0  0  0  0  0
    4.7396   12.1072   27.8987 F   0  0  0  0  0  0  0  0  0  0  0  0
    5.5310   10.1643   26.8294 C   0  0  0  0  0  0  0  0  0  0  0  0
    6.3771    9.5594   25.8982 C   0  0  0  0  0  0  0  0  0  0  0  0
    7.3060   10.3380   25.2270 C   0  0  0  0  0  0  0  0  0  0  0  0
  1  2  1  0
  2  3  1  0
  3  4  2  0
  4  5  1  0
  5  6  2  0
  5  7  1  0
  7  8  1  0
  8  9  2  0
  9 10  1  0
 10 11  2  0
 11 12  1  0
 12 13  1  0
 13 14  1  6
 13 15  2  0
 13 16  2  0
 16 17  1  0
 17 18  1  0
 18 19  1  0
 12 20  2  0
  4 21  1  0
 21 22  2  0
 22 23  1  0
 23 24  1  0
 23 25  2  0
 25 26  1  0
 26 27  2  0
 27  2  1  0
 20  8  1  0
 27 21  1  0
 19 17  1  0
M  END
>  <alias>  (407) 
None

>  <rmsd(smina/fragmenstein)>  (407) 
0.477

>  <smiles>  (407) 
Cn1nc(C(=O)Nc2cccc([S@@](C)(=O)=NC3CC3)c2)c2cc(F)ccc21

>  <gnina_score>  (407) 
6.125

>  <inspiration_score>  (407) 
None

>  <energy_score>  (407) 
-16.126371

>  <distance_score>  (407) 
1.472031

>  <gnina_score_min>  (407) 
6.069

>  <inchikey>  (407) 
CHDCNQUABRVEEU-HHHXNRCGSA-N

>  <exports>  (407) 
['/opt/xchem-fragalysis-2/maxwin/BulkDock/OUTPUTS/openbind_a71ev2a_c2_elabs_1LOUU54.sdf', '/opt/xchem-fragalysis-2/maxwin/BulkDock/OUTPUTS/openbind_a71ev2a_c2_elabs_1LSYIDY.sdf']

>  <name>  (407) 
P570752

>  <ref_pdb>  (407) 
A2339a

>  <subsites>  (407) 
None

>  <HIPPO Pose ID>  (407) 
570752

>  <ref_mols>  (407) 
A2339a

>  <HIPPO Compound ID>  (407) 
412187

>  <tags>  (407) 
openbind_a71ev2a_c2_elabs,syndirella_product,openbind_a71ev2a_c2_elabs_scored,BulkDock Fragalysis export,openbind_a71ev2a_c2_elabs_scored_top80percent,openbind_a71ev2a_c2_elabs_scored_6plus,openbind_a71ev2a_c2_elabs_scored_top80percent_despaghettified,syndirella_placed

>  <smina_score_min>  (407) 
-5.194

$$$$
P570756
     RDKit          3D

 27 30  0  0  0  0  0  0  0  0999 V2000
   14.1851   13.3827   29.7551 C   0  0  0  0  0  0  0  0  0  0  0  0
   12.8590   14.1171   29.7396 C   0  0  0  0  0  0  0  0  0  0  0  0
   12.5320   14.4847   28.3903 O   0  0  0  0  0  0  0  0  0  0  0  0
   11.3750   15.2174   28.3035 C   0  0  0  0  0  0  0  0  0  0  0  0
   10.7975   15.6720   29.2873 O   0  0  0  0  0  0  0  0  0  0  0  0
   10.8843   15.2893   26.9275 C   0  0  0  0  0  0  0  0  0  0  0  0
   11.5589   15.0073   25.8191 N   0  0  0  0  0  0  0  0  0  0  0  0
   10.7433   15.1370   24.7009 C   0  0  0  0  0  0  0  0  0  0  0  0
   11.0448   14.5018   23.2469 C   0  0  0  0  0  0  0  0  0  0  0  0
   10.3102   13.3415   23.3095 N   0  0  0  0  0  0  0  0  0  0  0  0
    8.8597   13.0796   22.9860 C   0  0  0  0  0  0  0  0  0  0  0  0
    8.0510   13.7772   22.5374 O   0  0  0  0  0  0  0  0  0  0  0  0
    8.6195   11.7596   23.4501 C   0  0  0  0  0  0  0  0  0  0  0  0
    9.3901   10.7196   23.1364 N   0  0  0  0  0  0  0  0  0  0  0  0
    8.7877    9.7114   23.7818 N   0  0  0  0  0  0  0  0  0  0  0  0
    9.2370    8.3807   23.4808 C   0  0  0  0  0  0  0  0  0  0  0  0
    7.8285   10.1386   24.6759 C   0  0  0  0  0  0  0  0  0  0  0  0
    6.9704    9.5058   25.5652 C   0  0  0  0  0  0  0  0  0  0  0  0
    6.1390   10.2676   26.3913 C   0  0  0  0  0  0  0  0  0  0  0  0
    6.1533   11.6468   26.3069 C   0  0  0  0  0  0  0  0  0  0  0  0
    5.3926   12.3674   27.1397 F   0  0  0  0  0  0  0  0  0  0  0  0
    6.9399   12.2936   25.3657 C   0  0  0  0  0  0  0  0  0  0  0  0
    7.7615   11.5102   24.5319 C   0  0  0  0  0  0  0  0  0  0  0  0
   12.2105   14.6125   22.3261 C   0  0  0  0  0  0  0  0  0  0  0  0
   10.9637   15.3745   22.0139 C   0  0  0  0  0  0  0  0  0  0  0  0
    9.4168   15.4071   25.0295 C   0  0  0  0  0  0  0  0  0  0  0  0
    9.2246   15.6742   26.7022 S   0  0  0  0  0  0  0  0  0  0  0  0
  1  2  1  0
  2  3  1  0
  3  4  1  0
  4  5  2  0
  4  6  1  0
  6  7  2  0
  7  8  1  0
  8  9  1  0
  9 10  1  0
 10 11  1  0
 11 12  2  0
 11 13  1  0
 13 14  2  0
 14 15  1  0
 15 16  1  0
 15 17  1  0
 17 18  2  0
 18 19  1  0
 19 20  2  0
 20 21  1  0
 20 22  1  0
 22 23  2  0
  9 24  1  0
 24 25  1  0
  8 26  2  0
 26 27  1  0
 27  6  1  0
 25  9  1  0
 23 13  1  0
 23 17  1  0
M  END
>  <alias>  (408) 
None

>  <rmsd(smina/fragmenstein)>  (408) 
0.709

>  <smiles>  (408) 
CCOC(=O)c1nc(C2(NC(=O)c3nn(C)c4ccc(F)cc34)CC2)cs1

>  <gnina_score>  (408) 
6.333

>  <inspiration_score>  (408) 
None

>  <energy_score>  (408) 
-80.765602

>  <distance_score>  (408) 
1.052952

>  <gnina_score_min>  (408) 
6.186

>  <inchikey>  (408) 
OOHWHWVRMPJESV-UHFFFAOYSA-N

>  <exports>  (408) 
['/opt/xchem-fragalysis-2/maxwin/BulkDock/OUTPUTS/openbind_a71ev2a_c2_elabs_1LOUU54.sdf', '/opt/xchem-fragalysis-2/maxwin/BulkDock/OUTPUTS/openbind_a71ev2a_c2_elabs_1LSYIDY.sdf']

>  <name>  (408) 
P570756

>  <ref_pdb>  (408) 
A2339a

>  <subsites>  (408) 
None

>  <HIPPO Pose ID>  (408) 
570756

>  <ref_mols>  (408) 
A2339a

>  <HIPPO Compound ID>  (408) 
412200

>  <tags>  (408) 
openbind_a71ev2a_c2_elabs,syndirella_product,openbind_a71ev2a_c2_elabs_scored,BulkDock Fragalysis export,openbind_a71ev2a_c2_elabs_scored_top80percent,openbind_a71ev2a_c2_elabs_scored_6plus,openbind_a71ev2a_c2_elabs_scored_top80percent_despaghettified,syndirella_placed

>  <smina_score_min>  (408) 
-5.06

$$$$
P570757
     RDKit          3D

 27 30  0  0  0  0  0  0  0  0999 V2000
    8.6582   16.9304   27.3818 C   0  0  0  0  0  0  0  0  0  0  0  0
    8.9507   15.5263   26.9011 C   0  0  0  0  0  0  0  0  0  0  0  0
    9.5368   15.5032   25.5885 O   0  0  0  0  0  0  0  0  0  0  0  0
    8.6508   15.4799   24.5443 C   0  0  0  0  0  0  0  0  0  0  0  0
    7.4669   15.7681   24.6328 O   0  0  0  0  0  0  0  0  0  0  0  0
    9.2773   14.9481   23.2743 C   0  0  2  0  0  0  0  0  0  0  0  0
    9.2230   13.5939   23.3657 N   0  0  0  0  0  0  0  0  0  0  0  0
   10.2363   12.6048   23.8804 C   0  0  0  0  0  0  0  0  0  0  0  0
   11.3237   12.7630   24.2452 O   0  0  0  0  0  0  0  0  0  0  0  0
    9.4918   11.4000   23.9056 C   0  0  0  0  0  0  0  0  0  0  0  0
    9.8044   10.3289   23.2101 N   0  0  0  0  0  0  0  0  0  0  0  0
    8.9582    9.4182   23.6850 N   0  0  0  0  0  0  0  0  0  0  0  0
    9.2233    8.0783   23.2706 C   0  0  0  0  0  0  0  0  0  0  0  0
    8.0314    9.9197   24.5743 C   0  0  0  0  0  0  0  0  0  0  0  0
    7.0114    9.3934   25.3603 C   0  0  0  0  0  0  0  0  0  0  0  0
    6.2157   10.2090   26.1682 C   0  0  0  0  0  0  0  0  0  0  0  0
    6.4542   11.5610   26.2070 C   0  0  0  0  0  0  0  0  0  0  0  0
    5.7266   12.3444   27.0122 F   0  0  0  0  0  0  0  0  0  0  0  0
    7.5011   12.1036   25.4787 C   0  0  0  0  0  0  0  0  0  0  0  0
    8.3052   11.2639   24.6716 C   0  0  0  0  0  0  0  0  0  0  0  0
   10.5005   15.5407   22.6599 C   0  0  0  0  0  0  0  0  0  0  0  0
    9.1804   15.5259   21.8979 C   0  0  0  0  0  0  0  0  0  0  0  0
    8.1745   16.6263   21.7010 C   0  0  0  0  0  0  0  0  0  0  0  0
    8.7534   17.6997   20.8049 C   0  0  0  0  0  0  0  0  0  0  0  0
    9.9249   17.1510   20.0187 C   0  0  0  0  0  0  0  0  0  0  0  0
    9.8982   15.6922   19.5514 C   0  0  0  0  0  0  0  0  0  0  0  0
    9.3375   14.7506   20.6170 C   0  0  0  0  0  0  0  0  0  0  0  0
  1  2  1  0
  2  3  1  0
  3  4  1  0
  4  5  2  0
  4  6  1  0
  6  7  1  6
  7  8  1  0
  8  9  2  0
  8 10  1  0
 10 11  2  0
 11 12  1  0
 12 13  1  0
 12 14  1  0
 14 15  2  0
 15 16  1  0
 16 17  2  0
 17 18  1  0
 17 19  1  0
 19 20  2  0
  6 21  1  0
 21 22  1  0
 22 23  1  0
 23 24  1  0
 24 25  1  0
 25 26  1  0
 26 27  1  0
 22  6  1  0
 20 10  1  0
 27 22  1  0
 20 14  1  0
M  END
>  <alias>  (409) 
None

>  <rmsd(smina/fragmenstein)>  (409) 
0.562

>  <smiles>  (409) 
CCOC(=O)[C@]1(NC(=O)c2nn(C)c3ccc(F)cc23)CC12CCCCC2

>  <gnina_score>  (409) 
6.254

>  <inspiration_score>  (409) 
None

>  <energy_score>  (409) 
-14.497813

>  <distance_score>  (409) 
1.359527

>  <gnina_score_min>  (409) 
6.356

>  <inchikey>  (409) 
MSZVTPKXZWKPIL-HXUWFJFHSA-N

>  <exports>  (409) 
['/opt/xchem-fragalysis-2/maxwin/BulkDock/OUTPUTS/openbind_a71ev2a_c2_elabs_1LOUU54.sdf', '/opt/xchem-fragalysis-2/maxwin/BulkDock/OUTPUTS/openbind_a71ev2a_c2_elabs_1LSYIDY.sdf']

>  <name>  (409) 
P570757

>  <ref_pdb>  (409) 
A2339a

>  <subsites>  (409) 
None

>  <HIPPO Pose ID>  (409) 
570757

>  <ref_mols>  (409) 
A2339a

>  <HIPPO Compound ID>  (409) 
412204

>  <tags>  (409) 
openbind_a71ev2a_c2_elabs,syndirella_product,openbind_a71ev2a_c2_elabs_scored,BulkDock Fragalysis export,openbind_a71ev2a_c2_elabs_scored_top80percent,openbind_a71ev2a_c2_elabs_scored_6plus,openbind_a71ev2a_c2_elabs_scored_top80percent_despaghettified,syndirella_placed

>  <smina_score_min>  (409) 
-5.589

$$$$
P570759
     RDKit          3D

 27 30  0  0  0  0  0  0  0  0999 V2000
    9.3885    9.3648   23.2991 C   0  0  0  0  0  0  0  0  0  0  0  0
    8.7486   10.5793   23.7656 N   0  0  0  0  0  0  0  0  0  0  0  0
    8.9955   11.7474   23.1351 N   0  0  0  0  0  0  0  0  0  0  0  0
    8.1729   12.6358   23.7392 C   0  0  0  0  0  0  0  0  0  0  0  0
    7.9772   14.0071   23.2212 C   0  0  0  0  0  0  0  0  0  0  0  0
    7.3802   14.8177   23.8082 O   0  0  0  0  0  0  0  0  0  0  0  0
    8.7695   14.1091   21.9101 N   0  0  0  0  0  0  0  0  0  0  0  0
    9.0720   15.2313   21.1034 C   0  0  2  0  0  0  0  0  0  0  0  0
   10.1376   15.1763   20.0490 C   0  0  0  0  0  0  0  0  0  0  0  0
   10.4706   15.8001   21.3692 C   0  0  2  0  0  0  0  0  0  0  0  0
   11.1713   15.0763   22.5001 C   0  0  0  0  0  0  0  0  0  0  0  0
   12.0909   14.0717   22.2911 C   0  0  0  0  0  0  0  0  0  0  0  0
   12.5290   13.3199   23.3696 C   0  0  0  0  0  0  0  0  0  0  0  0
   12.1832   13.6145   24.6756 C   0  0  0  0  0  0  0  0  0  0  0  0
   11.2681   14.6138   24.9428 C   0  0  0  0  0  0  0  0  0  0  0  0
   10.8584   15.0471   26.3268 C   0  0  0  0  0  0  0  0  0  0  0  0
    9.6035   14.6423   26.6564 F   0  0  0  0  0  0  0  0  0  0  0  0
   11.6769   14.5891   27.3159 F   0  0  0  0  0  0  0  0  0  0  0  0
   10.8640   16.3990   26.5000 F   0  0  0  0  0  0  0  0  0  0  0  0
   10.7297   15.2496   23.8281 C   0  0  0  0  0  0  0  0  0  0  0  0
    7.5132   12.0548   24.8408 C   0  0  0  0  0  0  0  0  0  0  0  0
    6.6160   12.5206   25.8129 C   0  0  0  0  0  0  0  0  0  0  0  0
    5.9781   11.5869   26.6153 C   0  0  0  0  0  0  0  0  0  0  0  0
    5.1242   12.0183   27.5500 F   0  0  0  0  0  0  0  0  0  0  0  0
    6.1897   10.2245   26.4567 C   0  0  0  0  0  0  0  0  0  0  0  0
    7.1168    9.7559   25.5214 C   0  0  0  0  0  0  0  0  0  0  0  0
    7.7969   10.6962   24.7485 C   0  0  0  0  0  0  0  0  0  0  0  0
  1  2  1  0
  2  3  1  0
  3  4  2  0
  4  5  1  0
  5  6  2  0
  5  7  1  0
  8  7  1  1
  8  9  1  0
  9 10  1  0
 10 11  1  1
 11 12  2  0
 12 13  1  0
 13 14  2  0
 14 15  1  0
 15 16  1  0
 16 17  1  0
 16 18  1  0
 16 19  1  0
 15 20  2  0
  4 21  1  0
 21 22  2  0
 22 23  1  0
 23 24  1  0
 23 25  2  0
 25 26  1  0
 26 27  2  0
 27  2  1  0
 10  8  1  0
 20 11  1  0
 27 21  1  0
M  END
>  <alias>  (410) 
None

>  <rmsd(smina/fragmenstein)>  (410) 
0.475

>  <smiles>  (410) 
Cn1nc(C(=O)N[C@@H]2C[C@@H]2c2cccc(C(F)(F)F)c2)c2cc(F)ccc21

>  <gnina_score>  (410) 
6.062

>  <inspiration_score>  (410) 
None

>  <energy_score>  (410) 
-24.346518

>  <distance_score>  (410) 
1.276049

>  <gnina_score_min>  (410) 
5.879

>  <inchikey>  (410) 
JLKYDZOTMATUFQ-UKRRQHHQSA-N

>  <exports>  (410) 
['/opt/xchem-fragalysis-2/maxwin/BulkDock/OUTPUTS/openbind_a71ev2a_c2_elabs_1LOUU54.sdf', '/opt/xchem-fragalysis-2/maxwin/BulkDock/OUTPUTS/openbind_a71ev2a_c2_elabs_1LSYIDY.sdf']

>  <name>  (410) 
P570759

>  <ref_pdb>  (410) 
A2339a

>  <subsites>  (410) 
None

>  <HIPPO Pose ID>  (410) 
570759

>  <ref_mols>  (410) 
A2339a

>  <HIPPO Compound ID>  (410) 
412214

>  <tags>  (410) 
openbind_a71ev2a_c2_elabs,syndirella_product,openbind_a71ev2a_c2_elabs_scored,BulkDock Fragalysis export,openbind_a71ev2a_c2_elabs_scored_top80percent,openbind_a71ev2a_c2_elabs_scored_top80percent_despaghettified,syndirella_placed

>  <smina_score_min>  (410) 
-7.925

$$$$
P570763
     RDKit          3D

 27 30  0  0  0  0  0  0  0  0999 V2000
    9.0395    8.6946   23.6027 C   0  0  0  0  0  0  0  0  0  0  0  0
    8.7107   10.0181   24.0733 N   0  0  0  0  0  0  0  0  0  0  0  0
    9.4792   11.0373   23.6685 N   0  0  0  0  0  0  0  0  0  0  0  0
    9.0504   12.0830   24.4029 C   0  0  0  0  0  0  0  0  0  0  0  0
    9.6823   13.3874   24.2667 C   0  0  0  0  0  0  0  0  0  0  0  0
    9.3671   14.3246   24.8788 O   0  0  0  0  0  0  0  0  0  0  0  0
   10.6963   13.2383   23.1369 N   0  0  0  0  0  0  0  0  0  0  0  0
   11.4526   14.1959   22.4677 C   0  0  1  0  0  0  0  0  0  0  0  0
   12.2459   14.1151   21.2117 C   0  0  0  0  0  0  0  0  0  0  0  0
   10.7837   14.2300   21.0864 C   0  0  2  0  0  0  0  0  0  0  0  0
    9.9889   15.3965   20.7860 C   0  0  0  0  0  0  0  0  0  0  0  0
   10.3430   16.1903   19.7277 C   0  0  0  0  0  0  0  0  0  0  0  0
    9.8400   17.4576   19.7183 C   0  0  0  0  0  0  0  0  0  0  0  0
    8.9366   17.8823   20.6621 C   0  0  0  0  0  0  0  0  0  0  0  0
    8.6410   19.1983   20.7101 O   0  0  0  0  0  0  0  0  0  0  0  0
    7.8381   19.4915   19.5934 C   0  0  0  0  0  0  0  0  0  0  0  0
    7.1477   20.5783   19.9317 F   0  0  0  0  0  0  0  0  0  0  0  0
    8.6178   19.7981   18.5290 F   0  0  0  0  0  0  0  0  0  0  0  0
    8.3687   16.9836   21.5337 C   0  0  0  0  0  0  0  0  0  0  0  0
    8.9024   15.7248   21.6007 C   0  0  0  0  0  0  0  0  0  0  0  0
    7.9018   11.7676   25.1469 C   0  0  0  0  0  0  0  0  0  0  0  0
    7.0224   12.4870   25.9731 C   0  0  0  0  0  0  0  0  0  0  0  0
    6.0272   11.7866   26.6380 C   0  0  0  0  0  0  0  0  0  0  0  0
    5.2183   12.4433   27.4759 F   0  0  0  0  0  0  0  0  0  0  0  0
    5.8788   10.4185   26.4835 C   0  0  0  0  0  0  0  0  0  0  0  0
    6.7158    9.7105   25.6202 C   0  0  0  0  0  0  0  0  0  0  0  0
    7.7272   10.4013   24.9547 C   0  0  0  0  0  0  0  0  0  0  0  0
  1  2  1  0
  2  3  1  0
  3  4  2  0
  4  5  1  0
  5  6  2  0
  5  7  1  0
  8  7  1  1
  8  9  1  0
  9 10  1  0
 10 11  1  6
 11 12  2  0
 12 13  1  0
 13 14  2  0
 14 15  1  0
 15 16  1  0
 16 17  1  0
 16 18  1  0
 14 19  1  0
 19 20  2  0
  4 21  1  0
 21 22  2  0
 22 23  1  0
 23 24  1  0
 23 25  2  0
 25 26  1  0
 26 27  2  0
 27  2  1  0
 10  8  1  0
 20 11  1  0
 27 21  1  0
M  END
>  <alias>  (411) 
None

>  <rmsd(smina/fragmenstein)>  (411) 
1.367

>  <smiles>  (411) 
Cn1nc(C(=O)N[C@H]2C[C@@H]2c2ccc(OC(F)F)cc2)c2cc(F)ccc21

>  <gnina_score>  (411) 
6.02

>  <inspiration_score>  (411) 
None

>  <energy_score>  (411) 
-13.441567

>  <distance_score>  (411) 
0.820279

>  <gnina_score_min>  (411) 
5.683

>  <inchikey>  (411) 
YZBCQQLTXHYGMG-HIFRSBDPSA-N

>  <exports>  (411) 
['/opt/xchem-fragalysis-2/maxwin/BulkDock/OUTPUTS/openbind_a71ev2a_c2_elabs_1LOUU54.sdf', '/opt/xchem-fragalysis-2/maxwin/BulkDock/OUTPUTS/openbind_a71ev2a_c2_elabs_1LSYIDY.sdf']

>  <name>  (411) 
P570763

>  <ref_pdb>  (411) 
A2339a

>  <subsites>  (411) 
None

>  <HIPPO Pose ID>  (411) 
570763

>  <ref_mols>  (411) 
A2339a

>  <HIPPO Compound ID>  (411) 
412245

>  <tags>  (411) 
openbind_a71ev2a_c2_elabs,syndirella_product,openbind_a71ev2a_c2_elabs_scored,BulkDock Fragalysis export,openbind_a71ev2a_c2_elabs_scored_top80percent,openbind_a71ev2a_c2_elabs_scored_top80percent_despaghettified,syndirella_placed

>  <smina_score_min>  (411) 
-4.5

$$$$
P570764
     RDKit          3D

 27 30  0  0  0  0  0  0  0  0999 V2000
    9.5006    8.9631   23.2305 C   0  0  0  0  0  0  0  0  0  0  0  0
    9.1097   10.2062   23.8583 N   0  0  0  0  0  0  0  0  0  0  0  0
    9.7613   11.3378   23.5128 N   0  0  0  0  0  0  0  0  0  0  0  0
    9.2487   12.2723   24.3315 C   0  0  0  0  0  0  0  0  0  0  0  0
    9.4130   13.6948   24.1131 C   0  0  0  0  0  0  0  0  0  0  0  0
    9.7437   14.4839   24.9007 O   0  0  0  0  0  0  0  0  0  0  0  0
    8.9544   13.8687   22.6741 N   0  0  0  0  0  0  0  0  0  0  0  0
    8.7164   15.0200   21.9347 C   0  0  0  0  0  0  0  0  0  0  0  0
    7.2440   15.3816   22.2072 C   0  0  0  0  0  0  0  0  0  0  0  0
    6.1879   14.7487   21.5442 C   0  0  0  0  0  0  0  0  0  0  0  0
    4.8342   14.9324   21.8753 C   0  0  0  0  0  0  0  0  0  0  0  0
    4.4498   15.7554   22.9374 C   0  0  0  0  0  0  0  0  0  0  0  0
    2.9690   15.9550   23.2839 C   0  0  0  0  0  0  0  0  0  0  0  0
    2.7263   17.0417   24.3557 C   0  0  0  0  0  0  0  0  0  0  0  0
    2.3948   14.6286   23.8214 C   0  0  0  0  0  0  0  0  0  0  0  0
    2.1721   16.3765   22.0289 C   0  0  0  0  0  0  0  0  0  0  0  0
    5.4875   16.3268   23.6739 C   0  0  0  0  0  0  0  0  0  0  0  0
    6.8357   16.1142   23.3295 C   0  0  0  0  0  0  0  0  0  0  0  0
    9.7758   16.0355   21.6067 C   0  0  0  0  0  0  0  0  0  0  0  0
    9.3882   15.0393   20.5761 C   0  0  0  0  0  0  0  0  0  0  0  0
    8.1429   11.7804   25.0615 C   0  0  0  0  0  0  0  0  0  0  0  0
    7.1526   12.3646   25.8733 C   0  0  0  0  0  0  0  0  0  0  0  0
    6.1950   11.5376   26.4423 C   0  0  0  0  0  0  0  0  0  0  0  0
    5.2850   12.0698   27.2668 F   0  0  0  0  0  0  0  0  0  0  0  0
    6.1917   10.1719   26.2050 C   0  0  0  0  0  0  0  0  0  0  0  0
    7.1422    9.6025   25.3522 C   0  0  0  0  0  0  0  0  0  0  0  0
    8.0966   10.4280   24.7635 C   0  0  0  0  0  0  0  0  0  0  0  0
  1  2  1  0
  2  3  1  0
  3  4  2  0
  4  5  1  0
  5  6  2  0
  5  7  1  0
  7  8  1  0
  8  9  1  0
  9 10  2  0
 10 11  1  0
 11 12  2  0
 12 13  1  0
 13 14  1  0
 13 15  1  0
 13 16  1  0
 12 17  1  0
 17 18  2  0
  8 19  1  0
 19 20  1  0
  4 21  1  0
 21 22  2  0
 22 23  1  0
 23 24  1  0
 23 25  2  0
 25 26  1  0
 26 27  2  0
 27  2  1  0
 20  8  1  0
 27 21  1  0
 18  9  1  0
M  END
>  <alias>  (412) 
None

>  <rmsd(smina/fragmenstein)>  (412) 
1.361

>  <smiles>  (412) 
Cn1nc(C(=O)NC2(c3ccc(C(C)(C)C)cc3)CC2)c2cc(F)ccc21

>  <gnina_score>  (412) 
6.156

>  <inspiration_score>  (412) 
None

>  <energy_score>  (412) 
-24.179964

>  <distance_score>  (412) 
1.138693

>  <gnina_score_min>  (412) 
6.181

>  <inchikey>  (412) 
YJCNQZVBRJXXFD-UHFFFAOYSA-N

>  <exports>  (412) 
['/opt/xchem-fragalysis-2/maxwin/BulkDock/OUTPUTS/openbind_a71ev2a_c2_elabs_1LOUU54.sdf', '/opt/xchem-fragalysis-2/maxwin/BulkDock/OUTPUTS/openbind_a71ev2a_c2_elabs_1LSYIDY.sdf']

>  <name>  (412) 
P570764

>  <ref_pdb>  (412) 
A2339a

>  <subsites>  (412) 
None

>  <HIPPO Pose ID>  (412) 
570764

>  <ref_mols>  (412) 
A2339a

>  <HIPPO Compound ID>  (412) 
412276

>  <tags>  (412) 
openbind_a71ev2a_c2_elabs,syndirella_product,openbind_a71ev2a_c2_elabs_scored,BulkDock Fragalysis export,openbind_a71ev2a_c2_elabs_scored_top80percent,openbind_a71ev2a_c2_elabs_scored_6plus,openbind_a71ev2a_c2_elabs_scored_top80percent_despaghettified,syndirella_placed

>  <smina_score_min>  (412) 
-7.166

$$$$
P570768
     RDKit          3D

 27 30  0  0  0  0  0  0  0  0999 V2000
    9.3693    9.0553   23.3361 C   0  0  0  0  0  0  0  0  0  0  0  0
    8.9060   10.2892   23.9328 N   0  0  0  0  0  0  0  0  0  0  0  0
    9.5340   11.4348   23.6034 N   0  0  0  0  0  0  0  0  0  0  0  0
    8.9256   12.3693   24.3609 C   0  0  0  0  0  0  0  0  0  0  0  0
    9.2501   13.7857   24.2559 C   0  0  0  0  0  0  0  0  0  0  0  0
    8.8051   14.5881   24.9689 O   0  0  0  0  0  0  0  0  0  0  0  0
   10.1401   13.9377   23.0319 N   0  0  0  0  0  0  0  0  0  0  0  0
   10.5881   15.0762   22.3785 C   0  0  1  0  0  0  0  0  0  0  0  0
   10.9024   15.0926   20.9002 C   0  0  0  0  0  0  0  0  0  0  0  0
    9.5929   15.5433   21.4268 C   0  0  2  0  0  0  0  0  0  0  0  0
    8.7573   16.6529   21.0620 C   0  0  0  0  0  0  0  0  0  0  0  0
    8.2260   15.1797   21.0021 C   0  0  2  0  0  0  0  0  0  0  0  0
    6.9685   14.9240   21.6937 N   0  0  0  0  0  0  0  0  0  0  0  0
    5.6041   14.3818   21.1520 C   0  0  0  0  0  0  0  0  0  0  0  0
    5.3135   13.9887   20.0887 O   0  0  0  0  0  0  0  0  0  0  0  0
    4.6342   14.4656   22.1131 O   0  0  0  0  0  0  0  0  0  0  0  0
    3.2595   14.0129   21.7855 C   0  0  0  0  0  0  0  0  0  0  0  0
    3.1365   12.5842   21.2064 C   0  0  0  0  0  0  0  0  0  0  0  0
    2.4911   14.1414   23.1111 C   0  0  0  0  0  0  0  0  0  0  0  0
    2.5631   14.9210   20.7734 C   0  0  0  0  0  0  0  0  0  0  0  0
    7.8637   11.8383   25.1107 C   0  0  0  0  0  0  0  0  0  0  0  0
    6.8937   12.3759   25.9729 C   0  0  0  0  0  0  0  0  0  0  0  0
    6.0001   11.5089   26.5797 C   0  0  0  0  0  0  0  0  0  0  0  0
    5.1040   12.0051   27.4399 F   0  0  0  0  0  0  0  0  0  0  0  0
    6.0440   10.1454   26.3396 C   0  0  0  0  0  0  0  0  0  0  0  0
    6.9906    9.6154   25.4586 C   0  0  0  0  0  0  0  0  0  0  0  0
    7.8902   10.4783   24.8401 C   0  0  0  0  0  0  0  0  0  0  0  0
  1  2  1  0
  2  3  1  0
  3  4  2  0
  4  5  1  0
  5  6  2  0
  5  7  1  0
  8  7  1  6
  8  9  1  0
 10  9  1  6
 10 11  1  0
 11 12  1  0
 12 13  1  1
 13 14  1  0
 14 15  2  0
 14 16  1  0
 16 17  1  0
 17 18  1  0
 17 19  1  0
 17 20  1  0
  4 21  1  0
 21 22  2  0
 22 23  1  0
 23 24  1  0
 23 25  2  0
 25 26  1  0
 26 27  2  0
 27  2  1  0
 10  8  1  0
 27 21  1  0
 12 10  1  0
M  END
>  <alias>  (413) 
None

>  <rmsd(smina/fragmenstein)>  (413) 
0.44

>  <smiles>  (413) 
Cn1nc(C(=O)N[C@H]2C[C@]23C[C@@H]3NC(=O)OC(C)(C)C)c2cc(F)ccc21

>  <gnina_score>  (413) 
6.327

>  <inspiration_score>  (413) 
None

>  <energy_score>  (413) 
-6.599115

>  <distance_score>  (413) 
0.863137

>  <gnina_score_min>  (413) 
6.205

>  <inchikey>  (413) 
QWIVNJMEKOOVPV-NJSLBKSFSA-N

>  <exports>  (413) 
['/opt/xchem-fragalysis-2/maxwin/BulkDock/OUTPUTS/openbind_a71ev2a_c2_elabs_1LOUU54.sdf', '/opt/xchem-fragalysis-2/maxwin/BulkDock/OUTPUTS/openbind_a71ev2a_c2_elabs_1LSYIDY.sdf']

>  <name>  (413) 
P570768

>  <ref_pdb>  (413) 
A2339a

>  <subsites>  (413) 
None

>  <HIPPO Pose ID>  (413) 
570768

>  <ref_mols>  (413) 
A2339a

>  <HIPPO Compound ID>  (413) 
412288

>  <tags>  (413) 
openbind_a71ev2a_c2_elabs,syndirella_product,openbind_a71ev2a_c2_elabs_scored,BulkDock Fragalysis export,openbind_a71ev2a_c2_elabs_scored_top80percent,openbind_a71ev2a_c2_elabs_scored_6plus,openbind_a71ev2a_c2_elabs_scored_top80percent_despaghettified,syndirella_placed

>  <smina_score_min>  (413) 
-5.887

$$$$
P570771
     RDKit          3D

 27 30  0  0  0  0  0  0  0  0999 V2000
   10.2138   16.7372   30.4558 C   0  0  0  0  0  0  0  0  0  0  0  0
   10.4568   16.3791   29.0936 O   0  0  0  0  0  0  0  0  0  0  0  0
    9.3584   15.9155   28.4457 C   0  0  0  0  0  0  0  0  0  0  0  0
    8.2429   15.7767   28.9135 O   0  0  0  0  0  0  0  0  0  0  0  0
    9.7077   15.6377   27.0334 C   0  0  0  0  0  0  0  0  0  0  0  0
   10.9927   15.2405   26.6624 C   0  0  0  0  0  0  0  0  0  0  0  0
   11.2832   14.9658   25.3174 C   0  0  0  0  0  0  0  0  0  0  0  0
   10.3786   15.1863   24.2814 C   0  0  0  0  0  0  0  0  0  0  0  0
   10.6633   14.6598   22.8699 C   0  0  0  0  0  0  0  0  0  0  0  0
   10.0815   13.4318   23.0356 N   0  0  0  0  0  0  0  0  0  0  0  0
    8.6629   12.9888   22.8337 C   0  0  0  0  0  0  0  0  0  0  0  0
    7.7486   13.5618   22.4175 O   0  0  0  0  0  0  0  0  0  0  0  0
    8.6016   11.6774   23.3678 C   0  0  0  0  0  0  0  0  0  0  0  0
    9.4173   10.6727   23.0579 N   0  0  0  0  0  0  0  0  0  0  0  0
    8.8744    9.6575   23.7489 N   0  0  0  0  0  0  0  0  0  0  0  0
    9.3538    8.3365   23.4548 C   0  0  0  0  0  0  0  0  0  0  0  0
    7.9065   10.0654   24.6429 C   0  0  0  0  0  0  0  0  0  0  0  0
    7.0572    9.4260   25.5322 C   0  0  0  0  0  0  0  0  0  0  0  0
    6.2055   10.1705   26.3551 C   0  0  0  0  0  0  0  0  0  0  0  0
    6.1950   11.5485   26.2716 C   0  0  0  0  0  0  0  0  0  0  0  0
    5.4134   12.2566   27.0953 F   0  0  0  0  0  0  0  0  0  0  0  0
    6.9689   12.2024   25.3272 C   0  0  0  0  0  0  0  0  0  0  0  0
    7.8037   11.4296   24.4944 C   0  0  0  0  0  0  0  0  0  0  0  0
   11.8276   14.9211   21.9760 C   0  0  0  0  0  0  0  0  0  0  0  0
   10.4732   15.4639   21.6179 C   0  0  0  0  0  0  0  0  0  0  0  0
    9.0549   15.4810   24.7150 C   0  0  0  0  0  0  0  0  0  0  0  0
    8.7187   15.7151   26.0586 C   0  0  0  0  0  0  0  0  0  0  0  0
  1  2  1  0
  2  3  1  0
  3  4  2  0
  3  5  1  0
  5  6  2  0
  6  7  1  0
  7  8  2  0
  8  9  1  0
  9 10  1  0
 10 11  1  0
 11 12  2  0
 11 13  1  0
 13 14  2  0
 14 15  1  0
 15 16  1  0
 15 17  1  0
 17 18  2  0
 18 19  1  0
 19 20  2  0
 20 21  1  0
 20 22  1  0
 22 23  2  0
  9 24  1  0
 24 25  1  0
  8 26  1  0
 26 27  2  0
 27  5  1  0
 25  9  1  0
 23 13  1  0
 23 17  1  0
M  END
>  <alias>  (414) 
None

>  <rmsd(smina/fragmenstein)>  (414) 
0.459

>  <smiles>  (414) 
COC(=O)c1ccc(C2(NC(=O)c3nn(C)c4ccc(F)cc34)CC2)cc1

>  <gnina_score>  (414) 
6.142

>  <inspiration_score>  (414) 
None

>  <energy_score>  (414) 
-17.879221

>  <distance_score>  (414) 
1.025489

>  <gnina_score_min>  (414) 
6.069

>  <inchikey>  (414) 
IPQPWUQCCQHODN-UHFFFAOYSA-N

>  <exports>  (414) 
['/opt/xchem-fragalysis-2/maxwin/BulkDock/OUTPUTS/openbind_a71ev2a_c2_elabs_1LOUU54.sdf', '/opt/xchem-fragalysis-2/maxwin/BulkDock/OUTPUTS/openbind_a71ev2a_c2_elabs_1LSYIDY.sdf']

>  <name>  (414) 
P570771

>  <ref_pdb>  (414) 
A2339a

>  <subsites>  (414) 
None

>  <HIPPO Pose ID>  (414) 
570771

>  <ref_mols>  (414) 
A2339a

>  <HIPPO Compound ID>  (414) 
412290

>  <tags>  (414) 
openbind_a71ev2a_c2_elabs,syndirella_product,openbind_a71ev2a_c2_elabs_scored,BulkDock Fragalysis export,openbind_a71ev2a_c2_elabs_scored_top80percent,openbind_a71ev2a_c2_elabs_scored_6plus,openbind_a71ev2a_c2_elabs_scored_top80percent_despaghettified,syndirella_placed

>  <smina_score_min>  (414) 
-5.585

$$$$
P570773
     RDKit          3D

 27 30  0  0  0  0  0  0  0  0999 V2000
    9.2530    8.3974   23.5039 C   0  0  0  0  0  0  0  0  0  0  0  0
    8.7666    9.7149   23.8050 N   0  0  0  0  0  0  0  0  0  0  0  0
    9.3128   10.7383   23.1287 N   0  0  0  0  0  0  0  0  0  0  0  0
    8.4968   11.7439   23.4479 C   0  0  0  0  0  0  0  0  0  0  0  0
    8.6103   13.0701   22.9580 C   0  0  0  0  0  0  0  0  0  0  0  0
    7.7250   13.7162   22.5885 O   0  0  0  0  0  0  0  0  0  0  0  0
   10.0618   13.4141   23.1376 N   0  0  0  0  0  0  0  0  0  0  0  0
   10.7187   14.6101   23.0012 C   0  0  1  0  0  0  0  0  0  0  0  0
   10.4767   15.1294   24.4264 C   0  0  0  0  0  0  0  0  0  0  0  0
    9.1736   15.4964   24.8636 C   0  0  0  0  0  0  0  0  0  0  0  0
    8.8542   15.7690   26.2020 C   0  0  0  0  0  0  0  0  0  0  0  0
    9.8332   15.6480   27.1736 C   0  0  0  0  0  0  0  0  0  0  0  0
   11.0864   15.1764   26.8061 C   0  0  0  0  0  0  0  0  0  0  0  0
   11.3610   14.8643   25.4634 C   0  0  0  0  0  0  0  0  0  0  0  0
   11.9294   14.6731   22.1141 C   0  0  0  0  0  0  0  0  0  0  0  0
   10.7347   15.5402   21.8243 C   0  0  1  0  0  0  0  0  0  0  0  0
    9.8272   15.3759   20.6768 C   0  0  0  0  0  0  0  0  0  0  0  0
    9.5683   14.0861   20.3938 F   0  0  0  0  0  0  0  0  0  0  0  0
    8.6557   15.9909   20.9387 F   0  0  0  0  0  0  0  0  0  0  0  0
   10.3573   15.9508   19.5743 F   0  0  0  0  0  0  0  0  0  0  0  0
    7.6995   11.4812   24.5694 C   0  0  0  0  0  0  0  0  0  0  0  0
    6.8802   12.2495   25.4195 C   0  0  0  0  0  0  0  0  0  0  0  0
    6.1160   11.5879   26.3656 C   0  0  0  0  0  0  0  0  0  0  0  0
    5.3522   12.2927   27.2086 F   0  0  0  0  0  0  0  0  0  0  0  0
    6.1222   10.2087   26.4361 C   0  0  0  0  0  0  0  0  0  0  0  0
    6.9613    9.4674   25.5975 C   0  0  0  0  0  0  0  0  0  0  0  0
    7.8043   10.1148   24.7078 C   0  0  0  0  0  0  0  0  0  0  0  0
  1  2  1  0
  2  3  1  0
  3  4  2  0
  4  5  1  0
  5  6  2  0
  5  7  1  0
  8  7  1  6
  8  9  1  0
  9 10  2  0
 10 11  1  0
 11 12  2  0
 12 13  1  0
 13 14  2  0
  8 15  1  0
 15 16  1  0
 16 17  1  6
 17 18  1  0
 17 19  1  0
 17 20  1  0
  4 21  1  0
 21 22  2  0
 22 23  1  0
 23 24  1  0
 23 25  2  0
 25 26  1  0
 26 27  2  0
 27  2  1  0
 16  8  1  0
 27 21  1  0
 14  9  1  0
M  END
>  <alias>  (415) 
None

>  <rmsd(smina/fragmenstein)>  (415) 
0.603

>  <smiles>  (415) 
Cn1nc(C(=O)N[C@@]2(c3ccccc3)C[C@H]2C(F)(F)F)c2cc(F)ccc21

>  <gnina_score>  (415) 
6.275

>  <inspiration_score>  (415) 
None

>  <energy_score>  (415) 
-9.781635

>  <distance_score>  (415) 
1.056692

>  <gnina_score_min>  (415) 
6.133

>  <inchikey>  (415) 
QEUURESWAKZSDR-CRAIPNDOSA-N

>  <exports>  (415) 
['/opt/xchem-fragalysis-2/maxwin/BulkDock/OUTPUTS/openbind_a71ev2a_c2_elabs_1LOUU54.sdf', '/opt/xchem-fragalysis-2/maxwin/BulkDock/OUTPUTS/openbind_a71ev2a_c2_elabs_1LSYIDY.sdf']

>  <name>  (415) 
P570773

>  <ref_pdb>  (415) 
A2339a

>  <subsites>  (415) 
None

>  <HIPPO Pose ID>  (415) 
570773

>  <ref_mols>  (415) 
A2339a

>  <HIPPO Compound ID>  (415) 
412291

>  <tags>  (415) 
openbind_a71ev2a_c2_elabs,syndirella_product,openbind_a71ev2a_c2_elabs_scored,BulkDock Fragalysis export,openbind_a71ev2a_c2_elabs_scored_top80percent,openbind_a71ev2a_c2_elabs_scored_6plus,openbind_a71ev2a_c2_elabs_scored_top80percent_despaghettified,syndirella_placed

>  <smina_score_min>  (415) 
-6.975

$$$$
P570893
     RDKit          3D

 22 25  0  0  0  0  0  0  0  0999 V2000
    9.7783    9.0862   23.0619 C   0  0  0  0  0  0  0  0  0  0  0  0
    9.5778   10.4587   23.4754 N   0  0  0  0  0  0  0  0  0  0  0  0
   10.3037   11.4360   22.8968 N   0  0  0  0  0  0  0  0  0  0  0  0
    9.9165   12.5692   23.5115 C   0  0  0  0  0  0  0  0  0  0  0  0
   10.4918   13.8897   23.1452 C   0  0  0  0  0  0  0  0  0  0  0  0
   10.3007   14.8284   23.8133 O   0  0  0  0  0  0  0  0  0  0  0  0
   11.2523   13.7506   21.8072 N   0  0  0  0  0  0  0  0  0  0  0  0
   11.8249   14.7030   21.0058 C   0  0  0  0  0  0  0  0  0  0  0  0
   12.3476   14.5176   19.7156 C   0  0  0  0  0  0  0  0  0  0  0  0
   12.7880   15.6381   19.1489 N   0  0  0  0  0  0  0  0  0  0  0  0
   12.5331   16.5663   20.0856 N   0  0  0  0  0  0  0  0  0  0  0  0
   12.6609   18.0168   19.7895 C   0  0  0  0  0  0  0  0  0  0  0  0
   13.9857   18.7071   19.5785 C   0  0  0  0  0  0  0  0  0  0  0  0
   13.0594   18.5261   18.4180 C   0  0  0  0  0  0  0  0  0  0  0  0
   11.9763   16.0470   21.2281 C   0  0  0  0  0  0  0  0  0  0  0  0
    8.9060   12.2952   24.4797 C   0  0  0  0  0  0  0  0  0  0  0  0
    8.1375   13.0617   25.3750 C   0  0  0  0  0  0  0  0  0  0  0  0
    7.2001   12.4125   26.1784 C   0  0  0  0  0  0  0  0  0  0  0  0
    6.4775   13.1264   27.0523 F   0  0  0  0  0  0  0  0  0  0  0  0
    7.0065   11.0389   26.1114 C   0  0  0  0  0  0  0  0  0  0  0  0
    7.7574   10.2606   25.2288 C   0  0  0  0  0  0  0  0  0  0  0  0
    8.7010   10.9166   24.4257 C   0  0  0  0  0  0  0  0  0  0  0  0
  1  2  1  0
  2  3  1  0
  3  4  2  0
  4  5  1  0
  5  6  2  0
  5  7  1  0
  7  8  1  0
  8  9  1  0
  9 10  2  0
 10 11  1  0
 11 12  1  0
 12 13  1  0
 13 14  1  0
 11 15  1  0
  4 16  1  0
 16 17  2  0
 17 18  1  0
 18 19  1  0
 18 20  2  0
 20 21  1  0
 21 22  2  0
 22  2  1  0
 15  8  2  0
 22 16  1  0
 14 12  1  0
M  END
>  <alias>  (416) 
None

>  <rmsd(smina/fragmenstein)>  (416) 
0.448

>  <smiles>  (416) 
Cn1nc(C(=O)Nc2cnn(C3CC3)c2)c2cc(F)ccc21

>  <gnina_score>  (416) 
5.763

>  <inspiration_score>  (416) 
None

>  <energy_score>  (416) 
-33.85565

>  <distance_score>  (416) 
0.325343

>  <gnina_score_min>  (416) 
5.822

>  <inchikey>  (416) 
MQLAFKLWXIFCFY-UHFFFAOYSA-N

>  <exports>  (416) 
['/opt/xchem-fragalysis-2/maxwin/BulkDock/OUTPUTS/openbind_a71ev2a_c2_elabs_1LOUU54.sdf', '/opt/xchem-fragalysis-2/maxwin/BulkDock/OUTPUTS/openbind_a71ev2a_c2_elabs_1LSYIDY.sdf']

>  <name>  (416) 
P570893

>  <ref_pdb>  (416) 
A2304a

>  <subsites>  (416) 
None

>  <HIPPO Pose ID>  (416) 
570893

>  <ref_mols>  (416) 
A2304a

>  <HIPPO Compound ID>  (416) 
411271

>  <tags>  (416) 
openbind_a71ev2a_c2_elabs,syndirella_product,openbind_a71ev2a_c2_elabs_scored,BulkDock Fragalysis export,openbind_a71ev2a_c2_elabs_scored_top80percent,openbind_a71ev2a_c2_elabs_scored_top80percent_despaghettified,syndirella_placed

>  <smina_score_min>  (416) 
-7.873

$$$$
P571017
     RDKit          3D

 23 26  0  0  0  0  0  0  0  0999 V2000
   11.9726   14.0000   18.7434 C   0  0  0  0  0  0  0  0  0  0  0  0
   12.2695   15.0525   19.6577 C   0  0  0  0  0  0  0  0  0  0  0  0
   12.9145   16.1069   19.1902 N   0  0  0  0  0  0  0  0  0  0  0  0
   12.9194   16.9156   20.2368 N   0  0  0  0  0  0  0  0  0  0  0  0
   13.5585   18.2389   20.0518 C   0  0  0  0  0  0  0  0  0  0  0  0
   13.6067   18.8832   18.6702 C   0  0  0  0  0  0  0  0  0  0  0  0
   12.7989   19.5108   19.7551 C   0  0  0  0  0  0  0  0  0  0  0  0
   12.3562   16.3514   21.3577 C   0  0  0  0  0  0  0  0  0  0  0  0
   11.9089   15.1060   21.0123 C   0  0  0  0  0  0  0  0  0  0  0  0
   11.2283   14.1234   21.7126 N   0  0  0  0  0  0  0  0  0  0  0  0
   10.7113   14.1033   23.1738 C   0  0  0  0  0  0  0  0  0  0  0  0
   10.7115   14.9413   23.9891 O   0  0  0  0  0  0  0  0  0  0  0  0
   10.0786   12.7760   23.4686 C   0  0  0  0  0  0  0  0  0  0  0  0
   10.4170   11.6524   22.8059 N   0  0  0  0  0  0  0  0  0  0  0  0
    9.6899   10.6677   23.3810 N   0  0  0  0  0  0  0  0  0  0  0  0
    9.8694    9.2874   22.9751 C   0  0  0  0  0  0  0  0  0  0  0  0
    8.8257   11.1160   24.3455 C   0  0  0  0  0  0  0  0  0  0  0  0
    7.8812   10.4451   25.1373 C   0  0  0  0  0  0  0  0  0  0  0  0
    7.1468   11.2069   26.0438 C   0  0  0  0  0  0  0  0  0  0  0  0
    7.3643   12.5741   26.1496 C   0  0  0  0  0  0  0  0  0  0  0  0
    6.6621   13.2651   27.0572 F   0  0  0  0  0  0  0  0  0  0  0  0
    8.3101   13.2356   25.3619 C   0  0  0  0  0  0  0  0  0  0  0  0
    9.0608   12.4884   24.4355 C   0  0  0  0  0  0  0  0  0  0  0  0
  1  2  1  0
  2  3  2  0
  3  4  1  0
  4  5  1  0
  5  6  1  0
  6  7  1  0
  4  8  1  0
  8  9  2  0
  9 10  1  0
 10 11  1  0
 11 12  2  0
 11 13  1  0
 13 14  2  0
 14 15  1  0
 15 16  1  0
 15 17  1  0
 17 18  2  0
 18 19  1  0
 19 20  2  0
 20 21  1  0
 20 22  1  0
 22 23  2  0
  9  2  1  0
 23 13  1  0
  7  5  1  0
 23 17  1  0
M  END
>  <alias>  (417) 
None

>  <rmsd(smina/fragmenstein)>  (417) 
0.427

>  <smiles>  (417) 
Cc1nn(C2CC2)cc1NC(=O)c1nn(C)c2ccc(F)cc12

>  <gnina_score>  (417) 
5.802

>  <inspiration_score>  (417) 
None

>  <energy_score>  (417) 
-48.482998

>  <distance_score>  (417) 
0.440571

>  <gnina_score_min>  (417) 
5.83

>  <inchikey>  (417) 
UOPGZPVPFQCOIM-UHFFFAOYSA-N

>  <exports>  (417) 
['/opt/xchem-fragalysis-2/maxwin/BulkDock/OUTPUTS/openbind_a71ev2a_c2_elabs_1LOUU54.sdf', '/opt/xchem-fragalysis-2/maxwin/BulkDock/OUTPUTS/openbind_a71ev2a_c2_elabs_1LSYIDY.sdf']

>  <name>  (417) 
P571017

>  <ref_pdb>  (417) 
A2304a

>  <subsites>  (417) 
None

>  <HIPPO Pose ID>  (417) 
571017

>  <ref_mols>  (417) 
A2304a

>  <HIPPO Compound ID>  (417) 
411491

>  <tags>  (417) 
openbind_a71ev2a_c2_elabs,syndirella_product,openbind_a71ev2a_c2_elabs_scored,BulkDock Fragalysis export,openbind_a71ev2a_c2_elabs_scored_top80percent,openbind_a71ev2a_c2_elabs_scored_top80percent_despaghettified,syndirella_placed

>  <smina_score_min>  (417) 
-6.448

$$$$
P571019
     RDKit          3D

 23 26  0  0  0  0  0  0  0  0999 V2000
   12.0393   14.1856   18.8364 C   0  0  0  0  0  0  0  0  0  0  0  0
   12.2212   15.0522   19.9724 C   0  0  0  0  0  0  0  0  0  0  0  0
   11.8573   14.8693   21.2811 C   0  0  0  0  0  0  0  0  0  0  0  0
   11.2302   13.8299   21.9119 N   0  0  0  0  0  0  0  0  0  0  0  0
   10.5949   13.7455   23.3222 C   0  0  0  0  0  0  0  0  0  0  0  0
   10.5764   14.5256   24.1926 O   0  0  0  0  0  0  0  0  0  0  0  0
    9.9227   12.4481   23.5288 C   0  0  0  0  0  0  0  0  0  0  0  0
   10.2569   11.3438   22.8456 N   0  0  0  0  0  0  0  0  0  0  0  0
    9.5459   10.3564   23.4225 N   0  0  0  0  0  0  0  0  0  0  0  0
    9.7643    8.9923   22.9981 C   0  0  0  0  0  0  0  0  0  0  0  0
    8.6704   10.7967   24.3831 C   0  0  0  0  0  0  0  0  0  0  0  0
    7.7270   10.1339   25.1792 C   0  0  0  0  0  0  0  0  0  0  0  0
    6.9862   10.9006   26.0817 C   0  0  0  0  0  0  0  0  0  0  0  0
    7.1939   12.2705   26.1803 C   0  0  0  0  0  0  0  0  0  0  0  0
    6.4840   12.9735   27.0734 F   0  0  0  0  0  0  0  0  0  0  0  0
    8.1383   12.9251   25.3919 C   0  0  0  0  0  0  0  0  0  0  0  0
    8.8909   12.1689   24.4732 C   0  0  0  0  0  0  0  0  0  0  0  0
   12.2998   16.0305   21.8939 C   0  0  0  0  0  0  0  0  0  0  0  0
   12.8923   16.8880   21.0735 N   0  0  0  0  0  0  0  0  0  0  0  0
   12.8604   16.2632   19.9018 N   0  0  0  0  0  0  0  0  0  0  0  0
   13.6121   16.8455   18.7639 C   0  0  0  0  0  0  0  0  0  0  0  0
   13.4154   18.3109   18.4182 C   0  0  0  0  0  0  0  0  0  0  0  0
   13.0631   17.2521   17.4250 C   0  0  0  0  0  0  0  0  0  0  0  0
  1  2  1  0
  2  3  2  0
  3  4  1  0
  4  5  1  0
  5  6  2  0
  5  7  1  0
  7  8  2  0
  8  9  1  0
  9 10  1  0
  9 11  1  0
 11 12  2  0
 12 13  1  0
 13 14  2  0
 14 15  1  0
 14 16  1  0
 16 17  2  0
  3 18  1  0
 18 19  2  0
 19 20  1  0
 20 21  1  0
 21 22  1  0
 22 23  1  0
 20  2  1  0
 23 21  1  0
 17  7  1  0
 17 11  1  0
M  END
>  <alias>  (418) 
None

>  <rmsd(smina/fragmenstein)>  (418) 
0.364

>  <smiles>  (418) 
Cc1c(NC(=O)c2nn(C)c3ccc(F)cc23)cnn1C1CC1

>  <gnina_score>  (418) 
5.89

>  <inspiration_score>  (418) 
None

>  <energy_score>  (418) 
-34.475805

>  <distance_score>  (418) 
0.345318

>  <gnina_score_min>  (418) 
5.891

>  <inchikey>  (418) 
ZHKMPJUMPHFXSE-UHFFFAOYSA-N

>  <exports>  (418) 
['/opt/xchem-fragalysis-2/maxwin/BulkDock/OUTPUTS/openbind_a71ev2a_c2_elabs_1LOUU54.sdf', '/opt/xchem-fragalysis-2/maxwin/BulkDock/OUTPUTS/openbind_a71ev2a_c2_elabs_1LSYIDY.sdf']

>  <name>  (418) 
P571019

>  <ref_pdb>  (418) 
A2304a

>  <subsites>  (418) 
None

>  <HIPPO Pose ID>  (418) 
571019

>  <ref_mols>  (418) 
A2304a

>  <HIPPO Compound ID>  (418) 
411433

>  <tags>  (418) 
openbind_a71ev2a_c2_elabs,syndirella_product,openbind_a71ev2a_c2_elabs_scored,BulkDock Fragalysis export,openbind_a71ev2a_c2_elabs_scored_top80percent,openbind_a71ev2a_c2_elabs_scored_top80percent_despaghettified,syndirella_placed

>  <smina_score_min>  (418) 
-6.444

$$$$
P571174
     RDKit          3D

 24 27  0  0  0  0  0  0  0  0999 V2000
    9.7602    9.0785   23.0555 C   0  0  0  0  0  0  0  0  0  0  0  0
    9.5828   10.4582   23.4541 N   0  0  0  0  0  0  0  0  0  0  0  0
   10.3115   11.4170   22.8520 N   0  0  0  0  0  0  0  0  0  0  0  0
    9.9853   12.5564   23.4884 C   0  0  0  0  0  0  0  0  0  0  0  0
   10.6268   13.8470   23.1304 C   0  0  0  0  0  0  0  0  0  0  0  0
   10.6764   14.7256   23.8989 O   0  0  0  0  0  0  0  0  0  0  0  0
   11.1021   13.7730   21.6599 N   0  0  0  0  0  0  0  0  0  0  0  0
   11.7864   14.6844   20.8984 C   0  0  0  0  0  0  0  0  0  0  0  0
   12.1339   14.5432   19.5428 C   0  0  0  0  0  0  0  0  0  0  0  0
   12.7804   15.5920   19.0448 N   0  0  0  0  0  0  0  0  0  0  0  0
   12.8529   16.4237   20.0924 N   0  0  0  0  0  0  0  0  0  0  0  0
   13.7310   17.5983   20.0388 C   0  0  1  0  0  0  0  0  0  0  0  0
   14.2928   18.1125   18.7157 C   0  0  0  0  0  0  0  0  0  0  0  0
   13.3419   18.9193   19.5115 C   0  0  0  0  0  0  0  0  0  0  0  0
   12.1128   19.2025   18.9829 F   0  0  0  0  0  0  0  0  0  0  0  0
   13.8040   20.0832   20.0892 F   0  0  0  0  0  0  0  0  0  0  0  0
   12.2639   15.9268   21.2288 C   0  0  0  0  0  0  0  0  0  0  0  0
    8.9739   12.3138   24.4644 C   0  0  0  0  0  0  0  0  0  0  0  0
    8.2338   13.1013   25.3655 C   0  0  0  0  0  0  0  0  0  0  0  0
    7.2822   12.4757   26.1731 C   0  0  0  0  0  0  0  0  0  0  0  0
    6.5865   13.2048   27.0558 F   0  0  0  0  0  0  0  0  0  0  0  0
    7.0497   11.1081   26.1070 C   0  0  0  0  0  0  0  0  0  0  0  0
    7.7731   10.3095   25.2210 C   0  0  0  0  0  0  0  0  0  0  0  0
    8.7265   10.9410   24.4101 C   0  0  0  0  0  0  0  0  0  0  0  0
  1  2  1  0
  2  3  1  0
  3  4  2  0
  4  5  1  0
  5  6  2  0
  5  7  1  0
  7  8  1  0
  8  9  1  0
  9 10  2  0
 10 11  1  0
 12 11  1  6
 12 13  1  0
 13 14  1  0
 14 15  1  0
 14 16  1  0
 11 17  1  0
  4 18  1  0
 18 19  2  0
 19 20  1  0
 20 21  1  0
 20 22  2  0
 22 23  1  0
 23 24  2  0
 24  2  1  0
 17  8  2  0
 24 18  1  0
 14 12  1  0
M  END
>  <alias>  (419) 
None

>  <rmsd(smina/fragmenstein)>  (419) 
0.224

>  <smiles>  (419) 
Cn1nc(C(=O)Nc2cnn([C@H]3CC3(F)F)c2)c2cc(F)ccc21

>  <gnina_score>  (419) 
5.991

>  <inspiration_score>  (419) 
None

>  <energy_score>  (419) 
-31.085484

>  <distance_score>  (419) 
0.287121

>  <gnina_score_min>  (419) 
5.996

>  <inchikey>  (419) 
NVUHNHODIIDDIZ-LBPRGKRZSA-N

>  <exports>  (419) 
['/opt/xchem-fragalysis-2/maxwin/BulkDock/OUTPUTS/openbind_a71ev2a_c2_elabs_1LOUU54.sdf', '/opt/xchem-fragalysis-2/maxwin/BulkDock/OUTPUTS/openbind_a71ev2a_c2_elabs_1LSYIDY.sdf']

>  <name>  (419) 
P571174

>  <ref_pdb>  (419) 
A2304a

>  <subsites>  (419) 
None

>  <HIPPO Pose ID>  (419) 
571174

>  <ref_mols>  (419) 
A2304a

>  <HIPPO Compound ID>  (419) 
411628

>  <tags>  (419) 
openbind_a71ev2a_c2_elabs,syndirella_product,openbind_a71ev2a_c2_elabs_scored,BulkDock Fragalysis export,openbind_a71ev2a_c2_elabs_scored_top80percent,openbind_a71ev2a_c2_elabs_scored_top80percent_despaghettified,syndirella_placed

>  <smina_score_min>  (419) 
-8.309

$$$$
P571756
     RDKit          3D

 26 29  0  0  0  0  0  0  0  0999 V2000
    9.7467    8.9641   22.9914 C   0  0  0  0  0  0  0  0  0  0  0  0
    9.5779   10.3417   23.3956 N   0  0  0  0  0  0  0  0  0  0  0  0
   10.3172   11.2941   22.7979 N   0  0  0  0  0  0  0  0  0  0  0  0
   10.0328   12.4210   23.4654 C   0  0  0  0  0  0  0  0  0  0  0  0
   10.7612   13.6815   23.2146 C   0  0  0  0  0  0  0  0  0  0  0  0
   10.8486   14.4636   24.0795 O   0  0  0  0  0  0  0  0  0  0  0  0
   11.3086   13.7218   21.7641 N   0  0  0  0  0  0  0  0  0  0  0  0
   11.9582   14.7179   21.0872 C   0  0  0  0  0  0  0  0  0  0  0  0
   12.4311   15.9196   21.6296 C   0  0  0  0  0  0  0  0  0  0  0  0
   12.9257   16.7548   20.7183 N   0  0  0  0  0  0  0  0  0  0  0  0
   12.7775   16.0775   19.5640 N   0  0  0  0  0  0  0  0  0  0  0  0
   12.8332   16.8390   18.3291 C   0  0  0  0  0  0  0  0  0  0  0  0
   14.1744   17.4647   17.9777 C   0  0  0  0  0  0  0  0  0  0  0  0
   14.6784   17.2962   16.9319 O   0  0  0  0  0  0  0  0  0  0  0  0
   14.6052   18.3729   19.1741 N   0  0  0  0  0  0  0  0  0  0  0  0
   15.6643   19.3052   19.2849 C   0  0  0  0  0  0  0  0  0  0  0  0
   16.1472   20.0979   18.1022 C   0  0  0  0  0  0  0  0  0  0  0  0
   17.0184   19.0292   18.6945 C   0  0  0  0  0  0  0  0  0  0  0  0
   12.2562   14.8136   19.7491 C   0  0  0  0  0  0  0  0  0  0  0  0
    8.9943   12.1961   24.4184 C   0  0  0  0  0  0  0  0  0  0  0  0
    8.2675   12.9918   25.3246 C   0  0  0  0  0  0  0  0  0  0  0  0
    7.3023   12.3791   26.1246 C   0  0  0  0  0  0  0  0  0  0  0  0
    6.6171   13.1178   27.0079 F   0  0  0  0  0  0  0  0  0  0  0  0
    7.0499   11.0152   26.0515 C   0  0  0  0  0  0  0  0  0  0  0  0
    7.7626   10.2098   25.1617 C   0  0  0  0  0  0  0  0  0  0  0  0
    8.7242   10.8297   24.3522 C   0  0  0  0  0  0  0  0  0  0  0  0
  1  2  1  0
  2  3  1  0
  3  4  2  0
  4  5  1  0
  5  6  2  0
  5  7  1  0
  7  8  1  0
  8  9  1  0
  9 10  2  0
 10 11  1  0
 11 12  1  0
 12 13  1  0
 13 14  2  0
 13 15  1  0
 15 16  1  0
 16 17  1  0
 17 18  1  0
 11 19  1  0
  4 20  1  0
 20 21  2  0
 21 22  1  0
 22 23  1  0
 22 24  2  0
 24 25  1  0
 25 26  2  0
 26  2  1  0
 19  8  2  0
 26 20  1  0
 18 16  1  0
M  END
>  <alias>  (420) 
None

>  <rmsd(smina/fragmenstein)>  (420) 
0.236

>  <smiles>  (420) 
Cn1nc(C(=O)Nc2cnn(CC(=O)NC3CC3)c2)c2cc(F)ccc21

>  <gnina_score>  (420) 
6.066

>  <inspiration_score>  (420) 
None

>  <energy_score>  (420) 
-24.02482

>  <distance_score>  (420) 
0.18439

>  <gnina_score_min>  (420) 
6.087

>  <inchikey>  (420) 
BKBDRNDYIHTTRO-UHFFFAOYSA-N

>  <exports>  (420) 
['/opt/xchem-fragalysis-2/maxwin/BulkDock/OUTPUTS/openbind_a71ev2a_c2_elabs_1LOUU54.sdf', '/opt/xchem-fragalysis-2/maxwin/BulkDock/OUTPUTS/openbind_a71ev2a_c2_elabs_1LSYIDY.sdf']

>  <name>  (420) 
P571756

>  <ref_pdb>  (420) 
A2304a

>  <subsites>  (420) 
None

>  <HIPPO Pose ID>  (420) 
571756

>  <ref_mols>  (420) 
A2304a

>  <HIPPO Compound ID>  (420) 
412033

>  <tags>  (420) 
openbind_a71ev2a_c2_elabs,syndirella_product,openbind_a71ev2a_c2_elabs_scored,BulkDock Fragalysis export,openbind_a71ev2a_c2_elabs_scored_top80percent,openbind_a71ev2a_c2_elabs_scored_6plus,openbind_a71ev2a_c2_elabs_scored_top80percent_despaghettified,syndirella_placed

>  <smina_score_min>  (420) 
-7.978

$$$$
P576134
     RDKit          3D

 23 26  0  0  0  0  0  0  0  0999 V2000
    9.5860    8.5967   23.4479 C   0  0  0  0  0  0  0  0  0  0  0  0
    9.4401    9.9756   23.8508 N   0  0  0  0  0  0  0  0  0  0  0  0
   10.2657   10.8808   23.3067 N   0  0  0  0  0  0  0  0  0  0  0  0
   10.0158   12.0199   23.9745 C   0  0  0  0  0  0  0  0  0  0  0  0
   10.8199   13.2327   23.7295 C   0  0  0  0  0  0  0  0  0  0  0  0
   10.8661   14.0925   24.5143 O   0  0  0  0  0  0  0  0  0  0  0  0
   11.4382   13.1292   22.3308 N   0  0  0  0  0  0  0  0  0  0  0  0
   12.1613   14.0902   21.5630 C   0  0  0  0  0  0  0  0  0  0  0  0
   11.1838   14.9086   20.7986 C   0  0  0  0  0  0  0  0  0  0  0  0
   11.2476   15.3680   19.4960 C   0  0  0  0  0  0  0  0  0  0  0  0
   10.2257   16.2694   19.4086 N   0  0  0  0  0  0  0  0  0  0  0  0
   10.0974   17.3168   18.3803 C   0  0  0  0  0  0  0  0  0  0  0  0
    8.9984   17.3467   17.3688 C   0  0  0  0  0  0  0  0  0  0  0  0
    9.0362   18.3981   18.4290 C   0  0  0  0  0  0  0  0  0  0  0  0
    9.5108   16.2198   20.5603 C   0  0  0  0  0  0  0  0  0  0  0  0
   10.0310   15.3634   21.4057 N   0  0  0  0  0  0  0  0  0  0  0  0
    8.9283   11.8536   24.8764 C   0  0  0  0  0  0  0  0  0  0  0  0
    8.2141   12.6887   25.7566 C   0  0  0  0  0  0  0  0  0  0  0  0
    7.1779   12.1359   26.5069 C   0  0  0  0  0  0  0  0  0  0  0  0
    6.5007   12.9138   27.3625 F   0  0  0  0  0  0  0  0  0  0  0  0
    6.8448   10.7913   26.4117 C   0  0  0  0  0  0  0  0  0  0  0  0
    7.5474    9.9475   25.5493 C   0  0  0  0  0  0  0  0  0  0  0  0
    8.5779   10.5061   24.7801 C   0  0  0  0  0  0  0  0  0  0  0  0
  1  2  1  0
  2  3  1  0
  3  4  2  0
  4  5  1  0
  5  6  2  0
  5  7  1  0
  7  8  1  0
  8  9  1  0
  9 10  2  0
 10 11  1  0
 11 12  1  0
 12 13  1  0
 13 14  1  0
 11 15  1  0
 15 16  2  0
  4 17  1  0
 17 18  2  0
 18 19  1  0
 19 20  1  0
 19 21  2  0
 21 22  1  0
 22 23  2  0
 23  2  1  0
 16  9  1  0
 23 17  1  0
 14 12  1  0
M  END
>  <alias>  (421) 
None

>  <rmsd(smina/fragmenstein)>  (421) 
0.279

>  <smiles>  (421) 
Cn1nc(C(=O)NCc2cn(C3CC3)cn2)c2cc(F)ccc21

>  <gnina_score>  (421) 
6.229

>  <inspiration_score>  (421) 
None

>  <energy_score>  (421) 
-24.13208

>  <distance_score>  (421) 
0.537538

>  <gnina_score_min>  (421) 
6.274

>  <inchikey>  (421) 
CNKAYIFVTWQHJZ-UHFFFAOYSA-N

>  <exports>  (421) 
['/opt/xchem-fragalysis-2/maxwin/BulkDock/OUTPUTS/openbind_a71ev2a_c2_elabs_1LOUU54.sdf', '/opt/xchem-fragalysis-2/maxwin/BulkDock/OUTPUTS/openbind_a71ev2a_c2_elabs_1LSYIDY.sdf']

>  <name>  (421) 
P576134

>  <ref_pdb>  (421) 
A2972a

>  <subsites>  (421) 
None

>  <HIPPO Pose ID>  (421) 
576134

>  <ref_mols>  (421) 
A2972a

>  <HIPPO Compound ID>  (421) 
411369

>  <tags>  (421) 
openbind_a71ev2a_c2_elabs,syndirella_product,openbind_a71ev2a_c2_elabs_scored,BulkDock Fragalysis export,openbind_a71ev2a_c2_elabs_scored_top80percent,openbind_a71ev2a_c2_elabs_scored_6plus,openbind_a71ev2a_c2_elabs_scored_top80percent_despaghettified,syndirella_placed

>  <smina_score_min>  (421) 
-7.425

$$$$
P576151
     RDKit          3D

 23 26  0  0  0  0  0  0  0  0999 V2000
    9.5729   16.6052   20.5530 C   0  0  0  0  0  0  0  0  0  0  0  0
   10.5241   15.7523   19.9038 N   0  0  0  0  0  0  0  0  0  0  0  0
   10.9229   15.9044   18.6110 C   0  0  0  0  0  0  0  0  0  0  0  0
   11.8532   15.0347   18.2809 N   0  0  0  0  0  0  0  0  0  0  0  0
   12.1035   14.3455   19.4154 C   0  0  0  0  0  0  0  0  0  0  0  0
   11.2998   14.7700   20.4389 C   0  0  0  0  0  0  0  0  0  0  0  0
   11.4998   14.3287   21.8884 C   0  0  0  0  0  0  0  0  0  0  0  0
   10.6562   13.3606   22.4296 N   0  0  0  0  0  0  0  0  0  0  0  0
    9.7538   13.4057   23.6664 C   0  0  0  0  0  0  0  0  0  0  0  0
    9.5088   14.2837   24.3909 O   0  0  0  0  0  0  0  0  0  0  0  0
    9.2505   12.0672   23.9344 C   0  0  0  0  0  0  0  0  0  0  0  0
    9.7442   10.9901   23.3007 N   0  0  0  0  0  0  0  0  0  0  0  0
    9.1476    9.9530   23.9113 N   0  0  0  0  0  0  0  0  0  0  0  0
    9.5312    8.6174   23.5192 C   0  0  0  0  0  0  0  0  0  0  0  0
    8.2451   10.3368   24.8751 C   0  0  0  0  0  0  0  0  0  0  0  0
    7.3764    9.6283   25.7039 C   0  0  0  0  0  0  0  0  0  0  0  0
    6.5833   10.3345   26.6104 C   0  0  0  0  0  0  0  0  0  0  0  0
    6.6705   11.7142   26.6872 C   0  0  0  0  0  0  0  0  0  0  0  0
    5.9183   12.3692   27.5813 F   0  0  0  0  0  0  0  0  0  0  0  0
    7.5273   12.4300   25.8598 C   0  0  0  0  0  0  0  0  0  0  0  0
    8.3110   11.7219   24.9285 C   0  0  0  0  0  0  0  0  0  0  0  0
   12.9348   14.2660   22.3638 C   0  0  0  0  0  0  0  0  0  0  0  0
   12.0531   15.3705   22.7900 C   0  0  0  0  0  0  0  0  0  0  0  0
  1  2  1  0
  2  3  1  0
  3  4  2  0
  4  5  1  0
  5  6  2  0
  6  7  1  0
  7  8  1  0
  8  9  1  0
  9 10  2  0
  9 11  1  0
 11 12  2  0
 12 13  1  0
 13 14  1  0
 13 15  1  0
 15 16  2  0
 16 17  1  0
 17 18  2  0
 18 19  1  0
 18 20  1  0
 20 21  2  0
  7 22  1  0
 22 23  1  0
  6  2  1  0
 23  7  1  0
 21 11  1  0
 21 15  1  0
M  END
>  <alias>  (422) 
None

>  <rmsd(smina/fragmenstein)>  (422) 
1.303

>  <smiles>  (422) 
Cn1cncc1C1(NC(=O)c2nn(C)c3ccc(F)cc23)CC1

>  <gnina_score>  (422) 
6.241

>  <inspiration_score>  (422) 
None

>  <energy_score>  (422) 
-27.368893

>  <distance_score>  (422) 
0.837826

>  <gnina_score_min>  (422) 
6.331

>  <inchikey>  (422) 
QWJAQHASRNWRLL-UHFFFAOYSA-N

>  <exports>  (422) 
['/opt/xchem-fragalysis-2/maxwin/BulkDock/OUTPUTS/openbind_a71ev2a_c2_elabs_1LOUU54.sdf', '/opt/xchem-fragalysis-2/maxwin/BulkDock/OUTPUTS/openbind_a71ev2a_c2_elabs_1LSYIDY.sdf']

>  <name>  (422) 
P576151

>  <ref_pdb>  (422) 
A2972a

>  <subsites>  (422) 
None

>  <HIPPO Pose ID>  (422) 
576151

>  <ref_mols>  (422) 
A2972a

>  <HIPPO Compound ID>  (422) 
411415

>  <tags>  (422) 
openbind_a71ev2a_c2_elabs,syndirella_product,openbind_a71ev2a_c2_elabs_scored,BulkDock Fragalysis export,openbind_a71ev2a_c2_elabs_scored_top80percent,openbind_a71ev2a_c2_elabs_scored_6plus,openbind_a71ev2a_c2_elabs_scored_top80percent_despaghettified,syndirella_placed

>  <smina_score_min>  (422) 
-6.971

$$$$
P577893
     RDKit          3D

 24 26  0  0  0  0  0  0  0  0999 V2000
   -3.5286   17.6078   22.9336 C   0  0  0  0  0  0  0  0  0  0  0  0
   -2.0644   17.3743   22.5903 C   0  0  2  0  0  0  0  0  0  0  0  0
   -1.1800   17.9775   23.5763 C   0  0  0  0  0  0  0  0  0  0  0  0
   -0.4373   18.4084   24.3563 N   0  0  0  0  0  0  0  0  0  0  0  0
   -1.6900   17.6793   21.1050 C   0  0  0  0  0  0  0  0  0  0  0  0
   -0.8065   16.4172   21.1283 C   0  0  2  0  0  0  0  0  0  0  0  0
   -0.8225   15.6015   19.9307 N   0  0  0  0  0  0  0  0  0  0  0  0
   -1.9874   14.7968   19.2667 C   0  0  0  0  0  0  0  0  0  0  0  0
   -3.1226   14.7371   19.5460 O   0  0  0  0  0  0  0  0  0  0  0  0
   -1.3691   13.9718   18.0760 C   0  0  0  0  0  0  0  0  0  0  0  0
   -0.0772   13.2234   18.5302 C   0  0  0  0  0  0  0  0  0  0  0  0
    1.1459   13.4047   17.8551 C   0  0  0  0  0  0  0  0  0  0  0  0
    2.3178   12.7410   18.2332 C   0  0  0  0  0  0  0  0  0  0  0  0
    2.3004   11.8750   19.3121 C   0  0  0  0  0  0  0  0  0  0  0  0
    3.7286   11.0356   19.7565 Cl  0  0  0  0  0  0  0  0  0  0  0  0
    1.1301   11.6976   20.0330 C   0  0  0  0  0  0  0  0  0  0  0  0
   -0.0417   12.3700   19.6579 C   0  0  0  0  0  0  0  0  0  0  0  0
   -1.4046   12.1221   20.6898 Cl  0  0  0  0  0  0  0  0  0  0  0  0
   -2.4227   12.9448   17.5620 C   0  0  0  0  0  0  0  0  0  0  0  0
   -2.1138   12.4457   16.1605 C   0  0  0  0  0  0  0  0  0  0  0  0
   -2.0945   13.5435   15.2531 O   0  0  0  0  0  0  0  0  0  0  0  0
   -1.0422   14.4494   15.5510 C   0  0  0  0  0  0  0  0  0  0  0  0
   -1.1916   15.0345   16.9511 C   0  0  0  0  0  0  0  0  0  0  0  0
   -1.6929   15.8932   22.2857 C   0  0  0  0  0  0  0  0  0  0  0  0
  2  1  1  1
  2  3  1  0
  3  4  3  0
  2  5  1  0
  5  6  1  0
  6  7  1  6
  7  8  1  0
  8  9  2  0
  8 10  1  0
 10 11  1  0
 11 12  2  0
 12 13  1  0
 13 14  2  0
 14 15  1  0
 14 16  1  0
 16 17  2  0
 17 18  1  0
 10 19  1  0
 19 20  1  0
 20 21  1  0
 21 22  1  0
 22 23  1  0
  6 24  1  0
 24  2  1  0
 23 10  1  0
 17 11  1  0
M  END
>  <alias>  (423) 
None

>  <rmsd(smina/fragmenstein)>  (423) 
1.214

>  <smiles>  (423) 
C[C@]1(C#N)C[C@H](NC(=O)C2(c3ccc(Cl)cc3Cl)CCOCC2)C1

>  <gnina_score>  (423) 
5.326

>  <inspiration_score>  (423) 
None

>  <energy_score>  (423) 
-34.019548

>  <distance_score>  (423) 
0.384799

>  <gnina_score_min>  (423) 
5.564

>  <inchikey>  (423) 
OXELMIDCHLMUIJ-WJYNOGRTSA-N

>  <exports>  (423) 
['/opt/xchem-fragalysis-2/maxwin/BulkDock/OUTPUTS/openbind_a71ev2a_c2_elabs_1LOUU54.sdf', '/opt/xchem-fragalysis-2/maxwin/BulkDock/OUTPUTS/openbind_a71ev2a_c2_elabs_1LSYIDY.sdf']

>  <name>  (423) 
P577893

>  <ref_pdb>  (423) 
A3521b

>  <subsites>  (423) 
None

>  <HIPPO Pose ID>  (423) 
577893

>  <ref_mols>  (423) 
A3521b

>  <HIPPO Compound ID>  (423) 
420247

>  <tags>  (423) 
openbind_a71ev2a_c2_elabs,syndirella_product,openbind_a71ev2a_c2_elabs_scored,BulkDock Fragalysis export,openbind_a71ev2a_c2_elabs_scored_top80percent,openbind_a71ev2a_c2_elabs_scored_top80percent_despaghettified,syndirella_placed

>  <smina_score_min>  (423) 
-5.312

$$$$
P577896
     RDKit          3D

 29 32  0  0  0  0  0  0  0  0999 V2000
   -0.3543   18.3303   24.3310 N   0  0  0  0  0  0  0  0  0  0  0  0
   -1.1463   17.9164   23.5900 C   0  0  0  0  0  0  0  0  0  0  0  0
   -2.0827   17.3260   22.6349 C   0  0  2  0  0  0  0  0  0  0  0  0
   -3.5790   17.6076   23.1241 C   0  0  0  0  0  0  0  0  0  0  0  0
   -4.2361   18.8259   22.8441 C   0  0  0  0  0  0  0  0  0  0  0  0
   -5.5421   19.0822   23.2724 C   0  0  0  0  0  0  0  0  0  0  0  0
   -6.2364   18.1220   23.9990 C   0  0  0  0  0  0  0  0  0  0  0  0
   -5.6245   16.9101   24.2965 C   0  0  0  0  0  0  0  0  0  0  0  0
   -4.3178   16.6611   23.8668 C   0  0  0  0  0  0  0  0  0  0  0  0
   -1.6906   15.8501   22.2834 C   0  0  0  0  0  0  0  0  0  0  0  0
   -0.8315   16.4103   21.1257 C   0  0  1  0  0  0  0  0  0  0  0  0
   -0.8403   15.6018   19.9225 N   0  0  0  0  0  0  0  0  0  0  0  0
   -1.9963   14.7858   19.2569 C   0  0  0  0  0  0  0  0  0  0  0  0
   -3.1296   14.7091   19.5393 O   0  0  0  0  0  0  0  0  0  0  0  0
   -1.3698   13.9670   18.0676 C   0  0  0  0  0  0  0  0  0  0  0  0
   -0.0764   13.2238   18.5264 C   0  0  0  0  0  0  0  0  0  0  0  0
    1.1471   13.4071   17.8528 C   0  0  0  0  0  0  0  0  0  0  0  0
    2.3198   12.7457   18.2324 C   0  0  0  0  0  0  0  0  0  0  0  0
    2.3028   11.8799   19.3115 C   0  0  0  0  0  0  0  0  0  0  0  0
    3.7316   11.0420   19.7570 Cl  0  0  0  0  0  0  0  0  0  0  0  0
    1.1322   11.7008   20.0314 C   0  0  0  0  0  0  0  0  0  0  0  0
   -0.0404   12.3711   19.6548 C   0  0  0  0  0  0  0  0  0  0  0  0
   -1.4034   12.1197   20.6857 Cl  0  0  0  0  0  0  0  0  0  0  0  0
   -1.1939   15.0317   16.9445 C   0  0  0  0  0  0  0  0  0  0  0  0
   -1.0402   14.4490   15.5438 C   0  0  0  0  0  0  0  0  0  0  0  0
   -2.0879   13.5389   15.2429 O   0  0  0  0  0  0  0  0  0  0  0  0
   -2.1033   12.4396   16.1485 C   0  0  0  0  0  0  0  0  0  0  0  0
   -2.4168   12.9348   17.5501 C   0  0  0  0  0  0  0  0  0  0  0  0
   -1.7488   17.6459   21.1304 C   0  0  0  0  0  0  0  0  0  0  0  0
  1  2  3  0
  3  2  1  1
  3  4  1  0
  4  5  2  0
  5  6  1  0
  6  7  2  0
  7  8  1  0
  8  9  2  0
  3 10  1  0
 10 11  1  0
 11 12  1  6
 12 13  1  0
 13 14  2  0
 13 15  1  0
 15 16  1  0
 16 17  2  0
 17 18  1  0
 18 19  2  0
 19 20  1  0
 19 21  1  0
 21 22  2  0
 22 23  1  0
 15 24  1  0
 24 25  1  0
 25 26  1  0
 26 27  1  0
 27 28  1  0
 11 29  1  0
 29  3  1  0
  9  4  1  0
 28 15  1  0
 22 16  1  0
M  END
>  <alias>  (424) 
None

>  <rmsd(smina/fragmenstein)>  (424) 
1.313

>  <smiles>  (424) 
N#C[C@]1(c2ccccc2)C[C@@H](NC(=O)C2(c3ccc(Cl)cc3Cl)CCOCC2)C1

>  <gnina_score>  (424) 
5.805

>  <inspiration_score>  (424) 
None

>  <energy_score>  (424) 
-56.93659

>  <distance_score>  (424) 
0.394123

>  <gnina_score_min>  (424) 
5.896

>  <inchikey>  (424) 
XXPKOPYUSYZUOW-CXGRPWHSSA-N

>  <exports>  (424) 
['/opt/xchem-fragalysis-2/maxwin/BulkDock/OUTPUTS/openbind_a71ev2a_c2_elabs_1LOUU54.sdf', '/opt/xchem-fragalysis-2/maxwin/BulkDock/OUTPUTS/openbind_a71ev2a_c2_elabs_1LSYIDY.sdf']

>  <name>  (424) 
P577896

>  <ref_pdb>  (424) 
A3521b

>  <subsites>  (424) 
None

>  <HIPPO Pose ID>  (424) 
577896

>  <ref_mols>  (424) 
A3521b

>  <HIPPO Compound ID>  (424) 
420250

>  <tags>  (424) 
openbind_a71ev2a_c2_elabs,syndirella_product,openbind_a71ev2a_c2_elabs_scored,BulkDock Fragalysis export,openbind_a71ev2a_c2_elabs_scored_top80percent,openbind_a71ev2a_c2_elabs_scored_top80percent_despaghettified,syndirella_placed

>  <smina_score_min>  (424) 
-5.336

$$$$
P577924
     RDKit          3D

 25 26  0  0  0  0  0  0  0  0999 V2000
    8.9444   10.5481   24.1490 C   0  0  0  0  0  0  0  0  0  0  0  0
    8.3650   11.5347   25.0166 O   0  0  0  0  0  0  0  0  0  0  0  0
    7.2292   11.2086   25.7138 C   0  0  0  0  0  0  0  0  0  0  0  0
    6.7200    9.9140   25.7214 C   0  0  0  0  0  0  0  0  0  0  0  0
    5.5820    9.6522   26.4638 C   0  0  0  0  0  0  0  0  0  0  0  0
    4.9487   10.5465   27.2334 N   0  0  0  0  0  0  0  0  0  0  0  0
    5.4360   11.7895   27.2038 C   0  0  0  0  0  0  0  0  0  0  0  0
    6.5417   12.1955   26.4621 C   0  0  0  0  0  0  0  0  0  0  0  0
    6.8242   13.6716   26.5879 C   0  0  0  0  0  0  0  0  0  0  0  0
    7.0315   14.3331   25.2540 C   0  0  0  0  0  0  0  0  0  0  0  0
    6.1855   14.6759   24.5323 O   0  0  0  0  0  0  0  0  0  0  0  0
    8.5607   14.3332   25.0712 N   0  0  0  0  0  0  0  0  0  0  0  0
    9.2921   14.6362   24.0292 N   0  0  0  0  0  0  0  0  0  0  0  0
   10.7929   14.4127   23.7614 C   0  0  0  0  0  0  0  0  0  0  0  0
   11.6294   13.9944   24.4552 O   0  0  0  0  0  0  0  0  0  0  0  0
   10.9612   14.7660   22.3141 C   0  0  2  0  0  0  0  0  0  0  0  0
   12.1591   14.0743   21.7571 C   0  0  0  0  0  0  0  0  0  0  0  0
   12.5449   14.6111   20.3919 C   0  0  0  0  0  0  0  0  0  0  0  0
   11.4558   15.3748   19.7358 C   0  0  0  0  0  0  0  0  0  0  0  0
   11.0481   16.5082   20.6349 N   0  0  0  0  0  0  0  0  0  0  0  0
    9.5248   16.9680   20.1678 S   0  0  0  0  0  0  0  0  0  0  0  0
    9.2960   18.6314   20.7577 C   0  0  0  0  0  0  0  0  0  0  0  0
    9.6072   16.9354   18.7252 O   0  0  0  0  0  0  0  0  0  0  0  0
    8.6317   16.0801   20.8982 O   0  0  0  0  0  0  0  0  0  0  0  0
   11.1535   16.2422   22.0880 C   0  0  0  0  0  0  0  0  0  0  0  0
  1  2  1  0
  2  3  1  0
  3  4  2  0
  4  5  1  0
  5  6  2  0
  6  7  1  0
  7  8  2  0
  8  9  1  0
  9 10  1  0
 10 11  2  0
 10 12  1  0
 12 13  1  0
 13 14  1  0
 14 15  2  0
 16 14  1  1
 16 17  1  0
 17 18  1  0
 18 19  1  0
 19 20  1  0
 20 21  1  0
 21 22  1  0
 21 23  2  0
 21 24  2  0
 20 25  1  0
  8  3  1  0
 25 16  1  0
M  END
>  <alias>  (425) 
None

>  <rmsd(smina/fragmenstein)>  (425) 
0.786

>  <smiles>  (425) 
COc1ccncc1CC(=O)NNC(=O)[C@@H]1CCCN(S(C)(=O)=O)C1

>  <gnina_score>  (425) 
5.291

>  <inspiration_score>  (425) 
None

>  <energy_score>  (425) 
-2.483539

>  <distance_score>  (425) 
1.961243

>  <gnina_score_min>  (425) 
5.154

>  <inchikey>  (425) 
YUEAKYUPFROFHB-LLVKDONJSA-N

>  <exports>  (425) 
['/opt/xchem-fragalysis-2/maxwin/BulkDock/OUTPUTS/openbind_a71ev2a_c2_elabs_1LOUU54.sdf', '/opt/xchem-fragalysis-2/maxwin/BulkDock/OUTPUTS/openbind_a71ev2a_c2_elabs_1LSYIDY.sdf']

>  <name>  (425) 
P577924

>  <ref_pdb>  (425) 
A3897a

>  <subsites>  (425) 
None

>  <HIPPO Pose ID>  (425) 
577924

>  <ref_mols>  (425) 
A3897a

>  <HIPPO Compound ID>  (425) 
420016

>  <tags>  (425) 
openbind_a71ev2a_c2_elabs,syndirella_product,openbind_a71ev2a_c2_elabs_scored,BulkDock Fragalysis export,openbind_a71ev2a_c2_elabs_scored_top80percent,openbind_a71ev2a_c2_elabs_scored_top80percent_despaghettified,syndirella_placed

>  <smina_score_min>  (425) 
-4.628

$$$$
P578008
     RDKit          3D

 24 27  0  0  0  0  0  0  0  0999 V2000
   19.7333   19.2421   18.9923 C   0  0  0  0  0  0  0  0  0  0  0  0
   19.4108   19.5055   20.3835 C   0  0  0  0  0  0  0  0  0  0  0  0
   18.4823   20.4280   20.7754 N   0  0  0  0  0  0  0  0  0  0  0  0
   18.7058   20.5001   22.0673 C   0  0  0  0  0  0  0  0  0  0  0  0
   19.6298   19.5522   22.4275 N   0  0  0  0  0  0  0  0  0  0  0  0
   20.0904   18.9096   21.3587 N   0  0  0  0  0  0  0  0  0  0  0  0
   20.4472   19.6993   23.6173 C   0  0  0  0  0  0  0  0  0  0  0  0
   20.8772   21.1767   23.6864 C   0  0  1  0  0  0  0  0  0  0  0  0
   21.7934   21.4671   22.5872 N   0  0  0  0  0  0  0  0  0  0  0  0
   23.3138   21.2617   22.4725 C   0  0  0  0  0  0  0  0  0  0  0  0
   24.0891   20.8999   23.2642 O   0  0  0  0  0  0  0  0  0  0  0  0
   23.7275   21.5680   21.0744 C   0  0  0  0  0  0  0  0  0  0  0  0
   22.8417   22.0050   20.1494 N   0  0  0  0  0  0  0  0  0  0  0  0
   23.5918   22.1830   19.0390 N   0  0  0  0  0  0  0  0  0  0  0  0
   22.9527   22.6311   17.8240 C   0  0  0  0  0  0  0  0  0  0  0  0
   24.9312   21.9602   19.2218 C   0  0  0  0  0  0  0  0  0  0  0  0
   26.0381   22.1160   18.3730 C   0  0  0  0  0  0  0  0  0  0  0  0
   27.2882   21.7482   18.8715 C   0  0  0  0  0  0  0  0  0  0  0  0
   27.4097   21.2224   20.1488 C   0  0  0  0  0  0  0  0  0  0  0  0
   28.6269   20.8714   20.5802 F   0  0  0  0  0  0  0  0  0  0  0  0
   26.3075   21.0749   20.9897 C   0  0  0  0  0  0  0  0  0  0  0  0
   25.0427   21.4798   20.5241 C   0  0  0  0  0  0  0  0  0  0  0  0
   19.6590   22.1412   23.6699 C   0  0  0  0  0  0  0  0  0  0  0  0
   18.3692   21.5695   23.0342 C   0  0  0  0  0  0  0  0  0  0  0  0
  1  2  1  0
  2  3  1  0
  3  4  2  0
  4  5  1  0
  5  6  1  0
  5  7  1  0
  7  8  1  0
  8  9  1  6
  9 10  1  0
 10 11  2  0
 10 12  1  0
 12 13  2  0
 13 14  1  0
 14 15  1  0
 14 16  1  0
 16 17  2  0
 17 18  1  0
 18 19  2  0
 19 20  1  0
 19 21  1  0
 21 22  2  0
  8 23  1  0
 23 24  1  0
  6  2  2  0
 22 12  1  0
 24  4  1  0
 22 16  1  0
M  END
>  <alias>  (426) 
None

>  <rmsd(smina/fragmenstein)>  (426) 
1.274

>  <smiles>  (426) 
Cc1nc2n(n1)C[C@@H](NC(=O)c1nn(C)c3ccc(F)cc13)CC2

>  <gnina_score>  (426) 
4.531

>  <inspiration_score>  (426) 
None

>  <energy_score>  (426) 
-31.550275

>  <distance_score>  (426) 
0.952255

>  <gnina_score_min>  (426) 
4.306

>  <inchikey>  (426) 
GXBAPFAHLDNXDK-NSHDSACASA-N

>  <exports>  (426) 
['/opt/xchem-fragalysis-2/maxwin/BulkDock/OUTPUTS/openbind_a71ev2a_c2_elabs_1LOUU54.sdf', '/opt/xchem-fragalysis-2/maxwin/BulkDock/OUTPUTS/openbind_a71ev2a_c2_elabs_1LSYIDY.sdf']

>  <name>  (426) 
P578008

>  <ref_pdb>  (426) 
A3181b

>  <subsites>  (426) 
None

>  <HIPPO Pose ID>  (426) 
578008

>  <ref_mols>  (426) 
A3181b

>  <HIPPO Compound ID>  (426) 
299809

>  <tags>  (426) 
openbind_a71ev2a_c2_elabs,syndirella_product,openbind_a71ev2a_c2_elabs_scored,BulkDock Fragalysis export,openbind_a71ev2a_c2_elabs_scored_top80percent,openbind_a71ev2a_c2_elabs_scored_top80percent_despaghettified,syndirella_placed,openbind_a71ev2a_c1_elabs_filtered

>  <smina_score_min>  (426) 
-5.861

$$$$
P578010
     RDKit          3D

 24 26  0  0  0  0  0  0  0  0999 V2000
   22.0166   20.4141   25.2729 C   0  0  0  0  0  0  0  0  0  0  0  0
   21.0602   21.3815   24.5766 C   0  0  0  0  0  0  0  0  0  0  0  0
   21.5513   22.8223   24.7496 C   0  0  0  0  0  0  0  0  0  0  0  0
   20.7286   21.0638   23.0968 C   0  0  2  0  0  0  0  0  0  0  0  0
   20.2039   19.6295   22.8758 C   0  0  0  0  0  0  0  0  0  0  0  0
   19.5653   19.5184   21.5770 N   0  0  0  0  0  0  0  0  0  0  0  0
   18.2793   19.8116   21.2353 C   0  0  0  0  0  0  0  0  0  0  0  0
   18.1290   19.6881   19.9334 N   0  0  0  0  0  0  0  0  0  0  0  0
   19.3917   19.3729   19.5214 C   0  0  0  0  0  0  0  0  0  0  0  0
   20.2905   19.2307   20.4881 N   0  0  0  0  0  0  0  0  0  0  0  0
   21.7621   21.3837   22.1309 N   0  0  0  0  0  0  0  0  0  0  0  0
   23.2157   20.8917   22.0223 C   0  0  0  0  0  0  0  0  0  0  0  0
   23.8380   20.2112   22.7346 O   0  0  0  0  0  0  0  0  0  0  0  0
   23.7760   21.4241   20.7577 C   0  0  0  0  0  0  0  0  0  0  0  0
   22.9871   22.0722   19.8701 N   0  0  0  0  0  0  0  0  0  0  0  0
   23.8005   22.2917   18.8190 N   0  0  0  0  0  0  0  0  0  0  0  0
   23.2414   22.8227   17.5983 C   0  0  0  0  0  0  0  0  0  0  0  0
   25.1187   22.0114   19.0667 C   0  0  0  0  0  0  0  0  0  0  0  0
   26.2809   22.2219   18.3117 C   0  0  0  0  0  0  0  0  0  0  0  0
   27.4828   21.7596   18.8462 C   0  0  0  0  0  0  0  0  0  0  0  0
   27.5032   21.0880   20.0605 C   0  0  0  0  0  0  0  0  0  0  0  0
   28.6792   20.6411   20.5156 F   0  0  0  0  0  0  0  0  0  0  0  0
   26.3445   20.8754   20.8072 C   0  0  0  0  0  0  0  0  0  0  0  0
   25.1271   21.3743   20.3069 C   0  0  0  0  0  0  0  0  0  0  0  0
  1  2  1  0
  2  3  1  0
  2  4  1  0
  4  5  1  1
  5  6  1  0
  6  7  1  0
  7  8  2  0
  8  9  1  0
  9 10  2  0
  4 11  1  0
 11 12  1  0
 12 13  2  0
 12 14  1  0
 14 15  2  0
 15 16  1  0
 16 17  1  0
 16 18  1  0
 18 19  2  0
 19 20  1  0
 20 21  2  0
 21 22  1  0
 21 23  1  0
 23 24  2  0
 10  6  1  0
 24 14  1  0
 24 18  1  0
M  END
>  <alias>  (427) 
None

>  <rmsd(smina/fragmenstein)>  (427) 
0.531

>  <smiles>  (427) 
CC(C)[C@H](Cn1cncn1)NC(=O)c1nn(C)c2ccc(F)cc12

>  <gnina_score>  (427) 
4.429

>  <inspiration_score>  (427) 
None

>  <energy_score>  (427) 
-24.032611

>  <distance_score>  (427) 
0.53502

>  <gnina_score_min>  (427) 
4.386

>  <inchikey>  (427) 
ZVXCLKSCZDSFCA-ZDUSSCGKSA-N

>  <exports>  (427) 
['/opt/xchem-fragalysis-2/maxwin/BulkDock/OUTPUTS/openbind_a71ev2a_c2_elabs_1LOUU54.sdf', '/opt/xchem-fragalysis-2/maxwin/BulkDock/OUTPUTS/openbind_a71ev2a_c2_elabs_1LSYIDY.sdf']

>  <name>  (427) 
P578010

>  <ref_pdb>  (427) 
A3181b

>  <subsites>  (427) 
None

>  <HIPPO Pose ID>  (427) 
578010

>  <ref_mols>  (427) 
A3181b

>  <HIPPO Compound ID>  (427) 
299810

>  <tags>  (427) 
openbind_a71ev2a_c2_elabs,syndirella_product,openbind_a71ev2a_c2_elabs_scored,BulkDock Fragalysis export,openbind_a71ev2a_c2_elabs_scored_top80percent,openbind_a71ev2a_c2_elabs_scored_top80percent_despaghettified,syndirella_placed,openbind_a71ev2a_c1_elabs_filtered

>  <smina_score_min>  (427) 
-5.132

$$$$
P578012
     RDKit          3D

 24 26  0  0  0  0  0  0  0  0999 V2000
   16.4575   22.6915   19.5654 C   0  0  0  0  0  0  0  0  0  0  0  0
   17.6244   21.9241   19.1395 N   0  0  0  0  0  0  0  0  0  0  0  0
   18.8396   22.6918   19.4069 C   0  0  0  0  0  0  0  0  0  0  0  0
   17.6445   20.5492   19.7007 C   0  0  0  0  0  0  0  0  0  0  0  0
   17.6748   20.2893   21.2173 C   0  0  0  0  0  0  0  0  0  0  0  0
   19.0019   20.1081   21.7426 N   0  0  0  0  0  0  0  0  0  0  0  0
   19.5858   18.9836   22.2141 C   0  0  0  0  0  0  0  0  0  0  0  0
   20.8880   19.1327   22.1860 N   0  0  0  0  0  0  0  0  0  0  0  0
   21.0317   20.4033   21.7499 C   0  0  0  0  0  0  0  0  0  0  0  0
   22.1373   20.9054   21.2012 N   0  0  0  0  0  0  0  0  0  0  0  0
   23.5669   20.3768   21.1908 C   0  0  0  0  0  0  0  0  0  0  0  0
   24.0345   19.4554   21.7236 O   0  0  0  0  0  0  0  0  0  0  0  0
   24.2795   21.2408   20.2450 C   0  0  0  0  0  0  0  0  0  0  0  0
   23.5528   22.0532   19.4422 N   0  0  0  0  0  0  0  0  0  0  0  0
   24.4280   22.4230   18.4997 N   0  0  0  0  0  0  0  0  0  0  0  0
   23.9291   23.0508   17.3007 C   0  0  0  0  0  0  0  0  0  0  0  0
   25.7281   22.1310   18.8173 C   0  0  0  0  0  0  0  0  0  0  0  0
   26.9358   22.4441   18.1863 C   0  0  0  0  0  0  0  0  0  0  0  0
   28.0977   21.9113   18.7424 C   0  0  0  0  0  0  0  0  0  0  0  0
   28.0399   21.0852   19.8576 C   0  0  0  0  0  0  0  0  0  0  0  0
   29.1860   20.5717   20.3191 F   0  0  0  0  0  0  0  0  0  0  0  0
   26.8360   20.7661   20.4808 C   0  0  0  0  0  0  0  0  0  0  0  0
   25.6586   21.3224   19.9540 C   0  0  0  0  0  0  0  0  0  0  0  0
   19.8975   21.0777   21.6217 N   0  0  0  0  0  0  0  0  0  0  0  0
  1  2  1  0
  2  3  1  0
  2  4  1  0
  4  5  1  0
  5  6  1  0
  6  7  1  0
  7  8  2  0
  8  9  1  0
  9 10  1  0
 10 11  1  0
 11 12  2  0
 11 13  1  0
 13 14  2  0
 14 15  1  0
 15 16  1  0
 15 17  1  0
 17 18  2  0
 18 19  1  0
 19 20  2  0
 20 21  1  0
 20 22  1  0
 22 23  2  0
  9 24  2  0
 24  6  1  0
 23 13  1  0
 23 17  1  0
M  END
>  <alias>  (428) 
None

>  <rmsd(smina/fragmenstein)>  (428) 
0.651

>  <smiles>  (428) 
CN(C)CCn1cnc(NC(=O)c2nn(C)c3ccc(F)cc23)n1

>  <gnina_score>  (428) 
4.192

>  <inspiration_score>  (428) 
None

>  <energy_score>  (428) 
-45.629381

>  <distance_score>  (428) 
1.386601

>  <gnina_score_min>  (428) 
4.093

>  <inchikey>  (428) 
CUKCWYGWPWXVTR-UHFFFAOYSA-N

>  <exports>  (428) 
['/opt/xchem-fragalysis-2/maxwin/BulkDock/OUTPUTS/openbind_a71ev2a_c2_elabs_1LOUU54.sdf', '/opt/xchem-fragalysis-2/maxwin/BulkDock/OUTPUTS/openbind_a71ev2a_c2_elabs_1LSYIDY.sdf']

>  <name>  (428) 
P578012

>  <ref_pdb>  (428) 
A3181b

>  <subsites>  (428) 
None

>  <HIPPO Pose ID>  (428) 
578012

>  <ref_mols>  (428) 
A3181b

>  <HIPPO Compound ID>  (428) 
299812

>  <tags>  (428) 
openbind_a71ev2a_c2_elabs,syndirella_product,openbind_a71ev2a_c2_elabs_scored,BulkDock Fragalysis export,openbind_a71ev2a_c2_elabs_scored_top80percent,openbind_a71ev2a_c2_elabs_scored_top80percent_despaghettified,syndirella_placed,openbind_a71ev2a_c1_elabs_filtered

>  <smina_score_min>  (428) 
-5.259

$$$$
P578052
     RDKit          3D

 25 27  0  0  0  0  0  0  0  0999 V2000
   17.8857   21.6228   25.3914 C   0  0  0  0  0  0  0  0  0  0  0  0
   18.2364   20.9005   24.2074 O   0  0  0  0  0  0  0  0  0  0  0  0
   18.0213   21.5976   23.0515 C   0  0  0  0  0  0  0  0  0  0  0  0
   17.6301   22.7572   23.0181 O   0  0  0  0  0  0  0  0  0  0  0  0
   18.3086   20.7588   21.9098 C   0  0  0  0  0  0  0  0  0  0  0  0
   17.6560   20.8550   20.7615 N   0  0  0  0  0  0  0  0  0  0  0  0
   18.2211   19.9105   19.9789 C   0  0  0  0  0  0  0  0  0  0  0  0
   19.2366   19.2568   20.5295 N   0  0  0  0  0  0  0  0  0  0  0  0
   19.2479   19.7639   21.7806 N   0  0  0  0  0  0  0  0  0  0  0  0
   20.1818   19.2241   22.7489 C   0  0  0  0  0  0  0  0  0  0  0  0
   21.2112   20.2354   23.2347 C   0  0  0  0  0  0  0  0  0  0  0  0
   22.1036   20.6774   22.2002 N   0  0  0  0  0  0  0  0  0  0  0  0
   23.6362   20.6880   22.1434 C   0  0  0  0  0  0  0  0  0  0  0  0
   24.4236   20.4119   22.9554 O   0  0  0  0  0  0  0  0  0  0  0  0
   24.0336   21.2026   20.8140 C   0  0  0  0  0  0  0  0  0  0  0  0
   23.1182   21.6870   19.9448 N   0  0  0  0  0  0  0  0  0  0  0  0
   23.8564   22.0711   18.8808 N   0  0  0  0  0  0  0  0  0  0  0  0
   23.1906   22.6310   17.7278 C   0  0  0  0  0  0  0  0  0  0  0  0
   25.2085   21.9161   19.0514 C   0  0  0  0  0  0  0  0  0  0  0  0
   26.3063   22.2345   18.2390 C   0  0  0  0  0  0  0  0  0  0  0  0
   27.5750   21.8866   18.7091 C   0  0  0  0  0  0  0  0  0  0  0  0
   27.7265   21.2328   19.9240 C   0  0  0  0  0  0  0  0  0  0  0  0
   28.9599   20.8984   20.3246 F   0  0  0  0  0  0  0  0  0  0  0  0
   26.6335   20.9247   20.7285 C   0  0  0  0  0  0  0  0  0  0  0  0
   25.3503   21.2943   20.2889 C   0  0  0  0  0  0  0  0  0  0  0  0
  1  2  1  0
  2  3  1  0
  3  4  2  0
  3  5  1  0
  5  6  2  0
  6  7  1  0
  7  8  2  0
  8  9  1  0
  9 10  1  0
 10 11  1  0
 11 12  1  0
 12 13  1  0
 13 14  2  0
 13 15  1  0
 15 16  2  0
 16 17  1  0
 17 18  1  0
 17 19  1  0
 19 20  2  0
 20 21  1  0
 21 22  2  0
 22 23  1  0
 22 24  1  0
 24 25  2  0
  9  5  1  0
 25 15  1  0
 25 19  1  0
M  END
>  <alias>  (429) 
None

>  <rmsd(smina/fragmenstein)>  (429) 
1.209

>  <smiles>  (429) 
COC(=O)c1ncnn1CCNC(=O)c1nn(C)c2ccc(F)cc12

>  <gnina_score>  (429) 
4.18

>  <inspiration_score>  (429) 
None

>  <energy_score>  (429) 
-40.031785

>  <distance_score>  (429) 
0.751953

>  <gnina_score_min>  (429) 
4.289

>  <inchikey>  (429) 
YNCXZJAFHAAYJV-UHFFFAOYSA-N

>  <exports>  (429) 
['/opt/xchem-fragalysis-2/maxwin/BulkDock/OUTPUTS/openbind_a71ev2a_c2_elabs_1LOUU54.sdf', '/opt/xchem-fragalysis-2/maxwin/BulkDock/OUTPUTS/openbind_a71ev2a_c2_elabs_1LSYIDY.sdf']

>  <name>  (429) 
P578052

>  <ref_pdb>  (429) 
A3181b

>  <subsites>  (429) 
None

>  <HIPPO Pose ID>  (429) 
578052

>  <ref_mols>  (429) 
A3181b

>  <HIPPO Compound ID>  (429) 
299822

>  <tags>  (429) 
openbind_a71ev2a_c2_elabs,syndirella_product,openbind_a71ev2a_c2_elabs_scored,BulkDock Fragalysis export,openbind_a71ev2a_c2_elabs_scored_top80percent,openbind_a71ev2a_c2_elabs_scored_top80percent_despaghettified,syndirella_placed,openbind_a71ev2a_c1_elabs_filtered

>  <smina_score_min>  (429) 
-5.345

$$$$
P578061
     RDKit          3D

 25 28  0  0  0  0  0  0  0  0999 V2000
   22.9016   22.6614   17.5988 C   0  0  0  0  0  0  0  0  0  0  0  0
   23.5334   22.1748   18.8013 N   0  0  0  0  0  0  0  0  0  0  0  0
   22.7588   21.8818   19.8572 N   0  0  0  0  0  0  0  0  0  0  0  0
   23.6218   21.4648   20.8085 C   0  0  0  0  0  0  0  0  0  0  0  0
   23.1835   21.0561   22.1792 C   0  0  0  0  0  0  0  0  0  0  0  0
   24.0217   20.7885   22.9971 O   0  0  0  0  0  0  0  0  0  0  0  0
   21.7657   21.1484   22.3001 N   0  0  0  0  0  0  0  0  0  0  0  0
   21.1212   19.7867   21.9854 C   0  0  0  0  0  0  0  0  0  0  0  0
   19.7137   19.9118   21.4935 C   0  0  0  0  0  0  0  0  0  0  0  0
   19.0642   19.4681   20.4333 N   0  0  0  0  0  0  0  0  0  0  0  0
   17.8230   20.0325   20.5913 C   0  0  0  0  0  0  0  0  0  0  0  0
   17.6718   20.8074   21.6688 N   0  0  0  0  0  0  0  0  0  0  0  0
   18.8830   20.6910   22.2216 N   0  0  0  0  0  0  0  0  0  0  0  0
   19.3841   21.4959   23.3004 C   0  0  0  0  0  0  0  0  0  0  0  0
   20.8318   21.0488   23.5675 C   0  0  1  0  0  0  0  0  0  0  0  0
   20.9142   19.9621   24.6819 C   0  0  0  0  0  0  0  0  0  0  0  0
   19.8371   19.3296   24.8767 O   0  0  0  0  0  0  0  0  0  0  0  0
   22.0173   19.8632   25.2781 O   0  0  0  0  0  0  0  0  0  0  0  0
   24.9692   21.5237   20.3238 C   0  0  0  0  0  0  0  0  0  0  0  0
   26.2444   21.2223   20.8430 C   0  0  0  0  0  0  0  0  0  0  0  0
   27.3654   21.4658   20.0507 C   0  0  0  0  0  0  0  0  0  0  0  0
   28.5876   21.2059   20.5348 F   0  0  0  0  0  0  0  0  0  0  0  0
   27.2549   21.9896   18.7697 C   0  0  0  0  0  0  0  0  0  0  0  0
   26.0016   22.2786   18.2266 C   0  0  0  0  0  0  0  0  0  0  0  0
   24.8764   22.0303   19.0282 C   0  0  0  0  0  0  0  0  0  0  0  0
  1  2  1  0
  2  3  1  0
  3  4  2  0
  4  5  1  0
  5  6  2  0
  5  7  1  0
  7  8  1  0
  8  9  1  0
  9 10  2  0
 10 11  1  0
 11 12  2  0
 12 13  1  0
 13 14  1  0
 14 15  1  0
 15 16  1  6
 16 17  2  0
 16 18  1  0
  4 19  1  0
 19 20  2  0
 20 21  1  0
 21 22  1  0
 21 23  2  0
 23 24  1  0
 24 25  2  0
 25  2  1  0
 15  7  1  0
 25 19  1  0
 13  9  1  0
M  CHG  1  18  -1
M  END
>  <alias>  (430) 
None

>  <rmsd(smina/fragmenstein)>  (430) 
0.817

>  <smiles>  (430) 
Cn1nc(C(=O)N2Cc3ncnn3C[C@H]2C(=O)[O-])c2cc(F)ccc21

>  <gnina_score>  (430) 
4.34

>  <inspiration_score>  (430) 
None

>  <energy_score>  (430) 
-5.90102

>  <distance_score>  (430) 
1.053052

>  <gnina_score_min>  (430) 
4.224

>  <inchikey>  (430) 
OGDCUKOBOXHIBU-NSHDSACASA-M

>  <exports>  (430) 
['/opt/xchem-fragalysis-2/maxwin/BulkDock/OUTPUTS/openbind_a71ev2a_c2_elabs_1LOUU54.sdf', '/opt/xchem-fragalysis-2/maxwin/BulkDock/OUTPUTS/openbind_a71ev2a_c2_elabs_1LSYIDY.sdf']

>  <name>  (430) 
P578061

>  <ref_pdb>  (430) 
A3181b

>  <subsites>  (430) 
None

>  <HIPPO Pose ID>  (430) 
578061

>  <ref_mols>  (430) 
A3181b

>  <HIPPO Compound ID>  (430) 
299820

>  <tags>  (430) 
openbind_a71ev2a_c2_elabs,syndirella_product,openbind_a71ev2a_c2_elabs_scored,BulkDock Fragalysis export,openbind_a71ev2a_c2_elabs_scored_top80percent,openbind_a71ev2a_c2_elabs_scored_top80percent_despaghettified,syndirella_placed,openbind_a71ev2a_c1_elabs_filtered

>  <smina_score_min>  (430) 
-6.391

$$$$
P578062
     RDKit          3D

 25 27  0  0  0  0  0  0  0  0999 V2000
   21.1442   20.3704   26.7895 C   0  0  0  0  0  0  0  0  0  0  0  0
   20.6993   20.2480   25.4372 O   0  0  0  0  0  0  0  0  0  0  0  0
   21.2777   21.1351   24.5771 C   0  0  0  0  0  0  0  0  0  0  0  0
   22.0438   22.0268   24.9258 O   0  0  0  0  0  0  0  0  0  0  0  0
   20.7633   20.9402   23.1455 C   0  0  2  0  0  0  0  0  0  0  0  0
   20.2209   19.5327   22.8764 C   0  0  0  0  0  0  0  0  0  0  0  0
   19.5926   19.4755   21.5713 N   0  0  0  0  0  0  0  0  0  0  0  0
   18.3130   19.7923   21.2290 C   0  0  0  0  0  0  0  0  0  0  0  0
   18.1740   19.7094   19.9230 N   0  0  0  0  0  0  0  0  0  0  0  0
   19.4356   19.3916   19.5105 C   0  0  0  0  0  0  0  0  0  0  0  0
   20.3234   19.2066   20.4814 N   0  0  0  0  0  0  0  0  0  0  0  0
   21.7926   21.2989   22.1882 N   0  0  0  0  0  0  0  0  0  0  0  0
   23.2397   20.8087   22.0500 C   0  0  0  0  0  0  0  0  0  0  0  0
   23.8630   20.0964   22.7274 O   0  0  0  0  0  0  0  0  0  0  0  0
   23.7800   21.3570   20.7832 C   0  0  0  0  0  0  0  0  0  0  0  0
   22.9687   21.9812   19.8981 N   0  0  0  0  0  0  0  0  0  0  0  0
   23.7769   22.2422   18.8514 N   0  0  0  0  0  0  0  0  0  0  0  0
   23.2059   22.7873   17.6426 C   0  0  0  0  0  0  0  0  0  0  0  0
   25.1011   21.9816   19.0887 C   0  0  0  0  0  0  0  0  0  0  0  0
   26.2554   22.2176   18.3284 C   0  0  0  0  0  0  0  0  0  0  0  0
   27.4683   21.7710   18.8517 C   0  0  0  0  0  0  0  0  0  0  0  0
   27.5081   21.0931   20.0619 C   0  0  0  0  0  0  0  0  0  0  0  0
   28.6942   20.6625   20.5067 F   0  0  0  0  0  0  0  0  0  0  0  0
   26.3579   20.8573   20.8145 C   0  0  0  0  0  0  0  0  0  0  0  0
   25.1287   21.3363   20.3241 C   0  0  0  0  0  0  0  0  0  0  0  0
  1  2  1  0
  2  3  1  0
  3  4  2  0
  3  5  1  0
  5  6  1  1
  6  7  1  0
  7  8  1  0
  8  9  2  0
  9 10  1  0
 10 11  2  0
  5 12  1  0
 12 13  1  0
 13 14  2  0
 13 15  1  0
 15 16  2  0
 16 17  1  0
 17 18  1  0
 17 19  1  0
 19 20  2  0
 20 21  1  0
 21 22  2  0
 22 23  1  0
 22 24  1  0
 24 25  2  0
 11  7  1  0
 25 15  1  0
 25 19  1  0
M  END
>  <alias>  (431) 
None

>  <rmsd(smina/fragmenstein)>  (431) 
0.594

>  <smiles>  (431) 
COC(=O)[C@H](Cn1cncn1)NC(=O)c1nn(C)c2ccc(F)cc12

>  <gnina_score>  (431) 
4.333

>  <inspiration_score>  (431) 
None

>  <energy_score>  (431) 
-37.682724

>  <distance_score>  (431) 
0.517084

>  <gnina_score_min>  (431) 
4.293

>  <inchikey>  (431) 
OACSUJSZUXLRMS-NSHDSACASA-N

>  <exports>  (431) 
['/opt/xchem-fragalysis-2/maxwin/BulkDock/OUTPUTS/openbind_a71ev2a_c2_elabs_1LOUU54.sdf', '/opt/xchem-fragalysis-2/maxwin/BulkDock/OUTPUTS/openbind_a71ev2a_c2_elabs_1LSYIDY.sdf']

>  <name>  (431) 
P578062

>  <ref_pdb>  (431) 
A3181b

>  <subsites>  (431) 
None

>  <HIPPO Pose ID>  (431) 
578062

>  <ref_mols>  (431) 
A3181b

>  <HIPPO Compound ID>  (431) 
299817

>  <tags>  (431) 
openbind_a71ev2a_c2_elabs,syndirella_product,openbind_a71ev2a_c2_elabs_scored,BulkDock Fragalysis export,openbind_a71ev2a_c2_elabs_scored_top80percent,openbind_a71ev2a_c2_elabs_scored_top80percent_despaghettified,syndirella_placed,openbind_a71ev2a_c1_elabs_filtered

>  <smina_score_min>  (431) 
-4.986

$$$$
P578101
     RDKit          3D

 26 29  0  0  0  0  0  0  0  0999 V2000
   18.7345   23.0370   19.0330 C   0  0  0  0  0  0  0  0  0  0  0  0
   17.5765   22.0915   19.3944 C   0  0  0  0  0  0  0  0  0  0  0  0
   16.3420   22.9351   19.6943 C   0  0  0  0  0  0  0  0  0  0  0  0
   18.0126   21.1859   20.5014 C   0  0  0  0  0  0  0  0  0  0  0  0
   18.1108   21.6773   21.7739 N   0  0  0  0  0  0  0  0  0  0  0  0
   18.9184   20.8382   22.3700 C   0  0  0  0  0  0  0  0  0  0  0  0
   19.1640   19.7992   21.5273 N   0  0  0  0  0  0  0  0  0  0  0  0
   18.6312   20.0054   20.3066 N   0  0  0  0  0  0  0  0  0  0  0  0
   20.0785   18.7257   21.8355 C   0  0  0  0  0  0  0  0  0  0  0  0
   21.2394   19.2387   22.6805 C   0  0  1  0  0  0  0  0  0  0  0  0
   22.1158   20.0599   21.8755 N   0  0  0  0  0  0  0  0  0  0  0  0
   23.6081   20.3722   22.0300 C   0  0  0  0  0  0  0  0  0  0  0  0
   24.3566   20.0817   22.8727 O   0  0  0  0  0  0  0  0  0  0  0  0
   24.0288   21.0839   20.8020 C   0  0  0  0  0  0  0  0  0  0  0  0
   23.1177   21.5986   19.9449 N   0  0  0  0  0  0  0  0  0  0  0  0
   23.8639   22.0725   18.9257 N   0  0  0  0  0  0  0  0  0  0  0  0
   23.2039   22.6568   17.7815 C   0  0  0  0  0  0  0  0  0  0  0  0
   25.2159   21.9358   19.1090 C   0  0  0  0  0  0  0  0  0  0  0  0
   26.3161   22.3014   18.3203 C   0  0  0  0  0  0  0  0  0  0  0  0
   27.5837   21.9402   18.7817 C   0  0  0  0  0  0  0  0  0  0  0  0
   27.7317   21.2339   19.9674 C   0  0  0  0  0  0  0  0  0  0  0  0
   28.9650   20.8852   20.3553 F   0  0  0  0  0  0  0  0  0  0  0  0
   26.6361   20.8799   20.7498 C   0  0  0  0  0  0  0  0  0  0  0  0
   25.3530   21.2587   20.3185 C   0  0  0  0  0  0  0  0  0  0  0  0
   20.7060   19.9560   23.9294 C   0  0  0  0  0  0  0  0  0  0  0  0
   19.6762   21.0527   23.6326 C   0  0  0  0  0  0  0  0  0  0  0  0
  1  2  1  0
  2  3  1  0
  2  4  1  0
  4  5  1  0
  5  6  2  0
  6  7  1  0
  7  8  1  0
  7  9  1  0
  9 10  1  0
 10 11  1  6
 11 12  1  0
 12 13  2  0
 12 14  1  0
 14 15  2  0
 15 16  1  0
 16 17  1  0
 16 18  1  0
 18 19  2  0
 19 20  1  0
 20 21  2  0
 21 22  1  0
 21 23  1  0
 23 24  2  0
 10 25  1  0
 25 26  1  0
  8  4  2  0
 24 14  1  0
 26  6  1  0
 24 18  1  0
M  END
>  <alias>  (432) 
None

>  <rmsd(smina/fragmenstein)>  (432) 
1.152

>  <smiles>  (432) 
CC(C)c1nc2n(n1)C[C@@H](NC(=O)c1nn(C)c3ccc(F)cc13)CC2

>  <gnina_score>  (432) 
5.086

>  <inspiration_score>  (432) 
None

>  <energy_score>  (432) 
-11.878054

>  <distance_score>  (432) 
1.131992

>  <gnina_score_min>  (432) 
4.567

>  <inchikey>  (432) 
GBVBXISPMZULDX-LBPRGKRZSA-N

>  <exports>  (432) 
['/opt/xchem-fragalysis-2/maxwin/BulkDock/OUTPUTS/openbind_a71ev2a_c2_elabs_1LOUU54.sdf', '/opt/xchem-fragalysis-2/maxwin/BulkDock/OUTPUTS/openbind_a71ev2a_c2_elabs_1LSYIDY.sdf']

>  <name>  (432) 
P578101

>  <ref_pdb>  (432) 
A3181b

>  <subsites>  (432) 
None

>  <HIPPO Pose ID>  (432) 
578101

>  <ref_mols>  (432) 
A3181b

>  <HIPPO Compound ID>  (432) 
299827

>  <tags>  (432) 
openbind_a71ev2a_c2_elabs,syndirella_product,openbind_a71ev2a_c2_elabs_scored,BulkDock Fragalysis export,openbind_a71ev2a_c2_elabs_scored_top80percent,openbind_a71ev2a_c2_elabs_scored_top80percent_despaghettified,syndirella_placed,openbind_a71ev2a_c1_elabs_filtered

>  <smina_score_min>  (432) 
-6.219

$$$$
P578102
     RDKit          3D

 26 29  0  0  0  0  0  0  0  0999 V2000
   16.7995   22.8615   19.4900 C   0  0  0  0  0  0  0  0  0  0  0  0
   17.3786   21.7488   18.8169 O   0  0  0  0  0  0  0  0  0  0  0  0
   17.0903   20.5119   19.4995 C   0  0  0  0  0  0  0  0  0  0  0  0
   18.0052   20.2158   20.6318 C   0  0  0  0  0  0  0  0  0  0  0  0
   17.7984   20.7699   21.8745 N   0  0  0  0  0  0  0  0  0  0  0  0
   18.7957   20.2989   22.5759 C   0  0  0  0  0  0  0  0  0  0  0  0
   19.4948   19.4146   21.8183 N   0  0  0  0  0  0  0  0  0  0  0  0
   19.0653   19.3922   20.5508 N   0  0  0  0  0  0  0  0  0  0  0  0
   20.6558   18.7231   22.3240 C   0  0  0  0  0  0  0  0  0  0  0  0
   21.5508   19.7221   23.0662 C   0  0  1  0  0  0  0  0  0  0  0  0
   22.3902   20.4140   22.1149 N   0  0  0  0  0  0  0  0  0  0  0  0
   23.9036   20.6405   22.1043 C   0  0  0  0  0  0  0  0  0  0  0  0
   24.7121   20.3739   22.8976 O   0  0  0  0  0  0  0  0  0  0  0  0
   24.2494   21.2262   20.7936 C   0  0  0  0  0  0  0  0  0  0  0  0
   23.2973   21.6849   19.9516 N   0  0  0  0  0  0  0  0  0  0  0  0
   23.9937   22.0957   18.8704 N   0  0  0  0  0  0  0  0  0  0  0  0
   23.2787   22.6349   17.7369 C   0  0  0  0  0  0  0  0  0  0  0  0
   25.3536   21.9675   19.0006 C   0  0  0  0  0  0  0  0  0  0  0  0
   26.4218   22.2973   18.1551 C   0  0  0  0  0  0  0  0  0  0  0  0
   27.7090   21.9655   18.5888 C   0  0  0  0  0  0  0  0  0  0  0  0
   27.9069   21.3157   19.7995 C   0  0  0  0  0  0  0  0  0  0  0  0
   29.1551   20.9936   20.1651 F   0  0  0  0  0  0  0  0  0  0  0  0
   26.8432   20.9960   20.6347 C   0  0  0  0  0  0  0  0  0  0  0  0
   25.5449   21.3527   20.2345 C   0  0  0  0  0  0  0  0  0  0  0  0
   20.7985   20.7547   23.9473 C   0  0  0  0  0  0  0  0  0  0  0  0
   19.2693   20.6138   23.9427 C   0  0  0  0  0  0  0  0  0  0  0  0
  1  2  1  0
  2  3  1  0
  3  4  1  0
  4  5  1  0
  5  6  2  0
  6  7  1  0
  7  8  1  0
  7  9  1  0
  9 10  1  0
 10 11  1  6
 11 12  1  0
 12 13  2  0
 12 14  1  0
 14 15  2  0
 15 16  1  0
 16 17  1  0
 16 18  1  0
 18 19  2  0
 19 20  1  0
 20 21  2  0
 21 22  1  0
 21 23  1  0
 23 24  2  0
 10 25  1  0
 25 26  1  0
  8  4  2  0
 24 14  1  0
 26  6  1  0
 24 18  1  0
M  END
>  <alias>  (433) 
None

>  <rmsd(smina/fragmenstein)>  (433) 
1.597

>  <smiles>  (433) 
COCc1nc2n(n1)C[C@@H](NC(=O)c1nn(C)c3ccc(F)cc13)CC2

>  <gnina_score>  (433) 
4.591

>  <inspiration_score>  (433) 
None

>  <energy_score>  (433) 
-26.735191

>  <distance_score>  (433) 
1.024263

>  <gnina_score_min>  (433) 
4.478

>  <inchikey>  (433) 
HQRPGGOUHRLWEG-NSHDSACASA-N

>  <exports>  (433) 
['/opt/xchem-fragalysis-2/maxwin/BulkDock/OUTPUTS/openbind_a71ev2a_c2_elabs_1LOUU54.sdf', '/opt/xchem-fragalysis-2/maxwin/BulkDock/OUTPUTS/openbind_a71ev2a_c2_elabs_1LSYIDY.sdf']

>  <name>  (433) 
P578102

>  <ref_pdb>  (433) 
A3181b

>  <subsites>  (433) 
None

>  <HIPPO Pose ID>  (433) 
578102

>  <ref_mols>  (433) 
A3181b

>  <HIPPO Compound ID>  (433) 
299825

>  <tags>  (433) 
openbind_a71ev2a_c2_elabs,syndirella_product,openbind_a71ev2a_c2_elabs_scored,BulkDock Fragalysis export,openbind_a71ev2a_c2_elabs_scored_top80percent,openbind_a71ev2a_c2_elabs_scored_top80percent_despaghettified,syndirella_placed,openbind_a71ev2a_c1_elabs_filtered

>  <smina_score_min>  (433) 
-6.392

$$$$
P578148
     RDKit          3D

 27 30  0  0  0  0  0  0  0  0999 V2000
   23.1098   22.6553   17.7587 C   0  0  0  0  0  0  0  0  0  0  0  0
   23.7481   22.1656   18.9581 N   0  0  0  0  0  0  0  0  0  0  0  0
   22.9917   21.9090   20.0454 N   0  0  0  0  0  0  0  0  0  0  0  0
   23.8718   21.4149   20.9465 C   0  0  0  0  0  0  0  0  0  0  0  0
   23.4256   20.9626   22.2898 C   0  0  0  0  0  0  0  0  0  0  0  0
   24.1811   20.6348   23.1131 O   0  0  0  0  0  0  0  0  0  0  0  0
   21.8933   20.9709   22.2941 N   0  0  0  0  0  0  0  0  0  0  0  0
   20.9539   20.4868   23.2803 C   0  0  2  0  0  0  0  0  0  0  0  0
   20.3109   19.1680   22.8031 C   0  0  0  0  0  0  0  0  0  0  0  0
   19.6570   19.3227   21.5198 N   0  0  0  0  0  0  0  0  0  0  0  0
   18.3690   19.6639   21.2396 C   0  0  0  0  0  0  0  0  0  0  0  0
   18.1977   19.7023   19.9345 N   0  0  0  0  0  0  0  0  0  0  0  0
   19.4533   19.4494   19.4656 C   0  0  0  0  0  0  0  0  0  0  0  0
   20.3741   19.2143   20.3920 N   0  0  0  0  0  0  0  0  0  0  0  0
   19.8809   21.4971   23.6660 C   0  0  0  0  0  0  0  0  0  0  0  0
   19.5337   22.5864   22.8516 C   0  0  0  0  0  0  0  0  0  0  0  0
   18.4624   23.4167   23.1903 C   0  0  0  0  0  0  0  0  0  0  0  0
   17.7244   23.1737   24.3458 C   0  0  0  0  0  0  0  0  0  0  0  0
   18.0653   22.1104   25.1759 C   0  0  0  0  0  0  0  0  0  0  0  0
   19.1390   21.2831   24.8435 C   0  0  0  0  0  0  0  0  0  0  0  0
   25.1952   21.4034   20.4199 C   0  0  0  0  0  0  0  0  0  0  0  0
   26.4583   20.9868   20.8767 C   0  0  0  0  0  0  0  0  0  0  0  0
   27.5665   21.1986   20.0587 C   0  0  0  0  0  0  0  0  0  0  0  0
   28.7825   20.8272   20.4774 F   0  0  0  0  0  0  0  0  0  0  0  0
   27.4512   21.7980   18.8129 C   0  0  0  0  0  0  0  0  0  0  0  0
   26.2023   22.1805   18.3219 C   0  0  0  0  0  0  0  0  0  0  0  0
   25.0898   21.9605   19.1474 C   0  0  0  0  0  0  0  0  0  0  0  0
  1  2  1  0
  2  3  1  0
  3  4  2  0
  4  5  1  0
  5  6  2  0
  5  7  1  0
  7  8  1  0
  8  9  1  6
  9 10  1  0
 10 11  1  0
 11 12  2  0
 12 13  1  0
 13 14  2  0
  8 15  1  0
 15 16  2  0
 16 17  1  0
 17 18  2  0
 18 19  1  0
 19 20  2  0
  4 21  1  0
 21 22  2  0
 22 23  1  0
 23 24  1  0
 23 25  2  0
 25 26  1  0
 26 27  2  0
 27  2  1  0
 14 10  1  0
 20 15  1  0
 27 21  1  0
M  END
>  <alias>  (434) 
None

>  <rmsd(smina/fragmenstein)>  (434) 
0.872

>  <smiles>  (434) 
Cn1nc(C(=O)N[C@H](Cn2cncn2)c2ccccc2)c2cc(F)ccc21

>  <gnina_score>  (434) 
4.638

>  <inspiration_score>  (434) 
None

>  <energy_score>  (434) 
-11.815169

>  <distance_score>  (434) 
0.586098

>  <gnina_score_min>  (434) 
4.577

>  <inchikey>  (434) 
ZSYQUYSXUNBJIZ-MRXNPFEDSA-N

>  <exports>  (434) 
['/opt/xchem-fragalysis-2/maxwin/BulkDock/OUTPUTS/openbind_a71ev2a_c2_elabs_1LOUU54.sdf', '/opt/xchem-fragalysis-2/maxwin/BulkDock/OUTPUTS/openbind_a71ev2a_c2_elabs_1LSYIDY.sdf']

>  <name>  (434) 
P578148

>  <ref_pdb>  (434) 
A3181b

>  <subsites>  (434) 
None

>  <HIPPO Pose ID>  (434) 
578148

>  <ref_mols>  (434) 
A3181b

>  <HIPPO Compound ID>  (434) 
299839

>  <tags>  (434) 
openbind_a71ev2a_c2_elabs,syndirella_product,openbind_a71ev2a_c2_elabs_scored,BulkDock Fragalysis export,openbind_a71ev2a_c2_elabs_scored_top80percent,openbind_a71ev2a_c2_elabs_scored_top80percent_despaghettified,syndirella_placed,openbind_a71ev2a_c1_elabs_filtered

>  <smina_score_min>  (434) 
-5.805

$$$$
P578152
     RDKit          3D

 27 30  0  0  0  0  0  0  0  0999 V2000
   19.8876   19.2488   18.9639 C   0  0  0  0  0  0  0  0  0  0  0  0
   19.5729   19.5814   20.3395 C   0  0  0  0  0  0  0  0  0  0  0  0
   18.4257   20.2050   20.7193 N   0  0  0  0  0  0  0  0  0  0  0  0
   18.6315   20.4199   22.0045 C   0  0  0  0  0  0  0  0  0  0  0  0
   17.7344   21.1829   22.8902 C   0  0  0  0  0  0  0  0  0  0  0  0
   19.8428   19.8840   22.3616 N   0  0  0  0  0  0  0  0  0  0  0  0
   20.5403   19.8528   23.6246 C   0  0  0  0  0  0  0  0  0  0  0  0
   21.4496   21.1118   23.9675 C   0  0  2  0  0  0  0  0  0  0  0  0
   20.4784   22.2692   24.3198 C   0  0  0  0  0  0  0  0  0  0  0  0
   21.2346   23.4273   24.9218 C   0  0  0  0  0  0  0  0  0  0  0  0
   22.4352   23.6288   24.0399 C   0  0  0  0  0  0  0  0  0  0  0  0
   23.0454   22.2582   23.7412 C   0  0  0  0  0  0  0  0  0  0  0  0
   22.3378   21.3727   22.7280 N   0  0  0  0  0  0  0  0  0  0  0  0
   23.3200   20.4697   22.0110 C   0  0  0  0  0  0  0  0  0  0  0  0
   23.6939   19.3877   22.2792 O   0  0  0  0  0  0  0  0  0  0  0  0
   23.7994   21.1410   20.7795 C   0  0  0  0  0  0  0  0  0  0  0  0
   22.9806   21.8322   19.9589 N   0  0  0  0  0  0  0  0  0  0  0  0
   23.7689   22.1696   18.9230 N   0  0  0  0  0  0  0  0  0  0  0  0
   23.1728   22.7674   17.7525 C   0  0  0  0  0  0  0  0  0  0  0  0
   25.1006   21.9252   19.1323 C   0  0  0  0  0  0  0  0  0  0  0  0
   26.2443   22.2411   18.3858 C   0  0  0  0  0  0  0  0  0  0  0  0
   27.4696   21.7870   18.8729 C   0  0  0  0  0  0  0  0  0  0  0  0
   27.5307   21.0258   20.0323 C   0  0  0  0  0  0  0  0  0  0  0  0
   28.7288   20.5934   20.4427 F   0  0  0  0  0  0  0  0  0  0  0  0
   26.3895   20.7050   20.7675 C   0  0  0  0  0  0  0  0  0  0  0  0
   25.1476   21.1871   20.3135 C   0  0  0  0  0  0  0  0  0  0  0  0
   20.4040   19.2665   21.3201 N   0  0  0  0  0  0  0  0  0  0  0  0
  1  2  1  0
  2  3  1  0
  3  4  2  0
  4  5  1  0
  4  6  1  0
  6  7  1  0
  8  7  1  6
  8  9  1  0
  9 10  1  0
 10 11  1  0
 11 12  1  0
 12 13  1  0
 13 14  1  0
 14 15  2  0
 14 16  1  0
 16 17  2  0
 17 18  1  0
 18 19  1  0
 18 20  1  0
 20 21  2  0
 21 22  1  0
 22 23  2  0
 23 24  1  0
 23 25  1  0
 25 26  2  0
  6 27  1  0
 27  2  2  0
 13  8  1  0
 26 16  1  0
 26 20  1  0
M  END
>  <alias>  (435) 
None

>  <rmsd(smina/fragmenstein)>  (435) 
1.109

>  <smiles>  (435) 
Cc1nc(C)n(C[C@@H]2CCCCN2C(=O)c2nn(C)c3ccc(F)cc23)n1

>  <gnina_score>  (435) 
4.839

>  <inspiration_score>  (435) 
None

>  <energy_score>  (435) 
-3.209463

>  <distance_score>  (435) 
0.905081

>  <gnina_score_min>  (435) 
4.768

>  <inchikey>  (435) 
SSKUEGYYMNFDTL-HNNXBMFYSA-N

>  <exports>  (435) 
['/opt/xchem-fragalysis-2/maxwin/BulkDock/OUTPUTS/openbind_a71ev2a_c2_elabs_1LOUU54.sdf', '/opt/xchem-fragalysis-2/maxwin/BulkDock/OUTPUTS/openbind_a71ev2a_c2_elabs_1LSYIDY.sdf']

>  <name>  (435) 
P578152

>  <ref_pdb>  (435) 
A3181b

>  <subsites>  (435) 
None

>  <HIPPO Pose ID>  (435) 
578152

>  <ref_mols>  (435) 
A3181b

>  <HIPPO Compound ID>  (435) 
299836

>  <tags>  (435) 
openbind_a71ev2a_c2_elabs,syndirella_product,openbind_a71ev2a_c2_elabs_scored,BulkDock Fragalysis export,openbind_a71ev2a_c2_elabs_scored_top80percent,openbind_a71ev2a_c2_elabs_scored_top80percent_despaghettified,syndirella_placed,openbind_a71ev2a_c1_elabs_filtered

>  <smina_score_min>  (435) 
-5.902

$$$$
P578308
     RDKit          3D

 30 33  0  0  0  0  0  0  0  0999 V2000
   19.9970   22.1953   25.3312 C   0  0  0  0  0  0  0  0  0  0  0  0
   21.1410   21.9528   24.3563 C   0  0  0  0  0  0  0  0  0  0  0  0
   20.6732   21.4604   22.9743 C   0  0  1  0  0  0  0  0  0  0  0  0
   21.7107   21.6258   21.9737 N   0  0  0  0  0  0  0  0  0  0  0  0
   23.2324   21.4263   22.0694 C   0  0  0  0  0  0  0  0  0  0  0  0
   23.9050   21.1718   22.9868 O   0  0  0  0  0  0  0  0  0  0  0  0
   23.7903   21.6821   20.7209 C   0  0  0  0  0  0  0  0  0  0  0  0
   22.9944   22.1355   19.7257 N   0  0  0  0  0  0  0  0  0  0  0  0
   23.8309   22.2852   18.6820 N   0  0  0  0  0  0  0  0  0  0  0  0
   23.2977   22.7637   17.4289 C   0  0  0  0  0  0  0  0  0  0  0  0
   25.1441   22.0270   18.9759 C   0  0  0  0  0  0  0  0  0  0  0  0
   26.3171   22.1483   18.2179 C   0  0  0  0  0  0  0  0  0  0  0  0
   27.5125   21.7586   18.8208 C   0  0  0  0  0  0  0  0  0  0  0  0
   27.5191   21.2505   20.1115 C   0  0  0  0  0  0  0  0  0  0  0  0
   28.6916   20.8853   20.6416 F   0  0  0  0  0  0  0  0  0  0  0  0
   26.3524   21.1378   20.8664 C   0  0  0  0  0  0  0  0  0  0  0  0
   25.1407   21.5592   20.2892 C   0  0  0  0  0  0  0  0  0  0  0  0
   20.0095   20.0428   22.9675 C   0  0  2  0  0  0  0  0  0  0  0  0
   20.8078   18.9183   23.6063 C   0  0  0  0  0  0  0  0  0  0  0  0
   21.9362   18.3542   23.0031 C   0  0  0  0  0  0  0  0  0  0  0  0
   22.6563   17.3390   23.6376 C   0  0  0  0  0  0  0  0  0  0  0  0
   22.2698   16.8571   24.8896 C   0  0  0  0  0  0  0  0  0  0  0  0
   23.0088   15.7157   25.5180 C   0  0  0  0  0  0  0  0  0  0  0  0
   21.1450   17.4092   25.5017 C   0  0  0  0  0  0  0  0  0  0  0  0
   20.4319   18.4341   24.8730 C   0  0  0  0  0  0  0  0  0  0  0  0
   19.4756   19.7134   21.6348 N   0  0  0  0  0  0  0  0  0  0  0  0
   18.1796   19.8523   21.2166 C   0  0  0  0  0  0  0  0  0  0  0  0
   18.0928   19.6121   19.9260 N   0  0  0  0  0  0  0  0  0  0  0  0
   19.3939   19.3985   19.5797 C   0  0  0  0  0  0  0  0  0  0  0  0
   20.2692   19.4569   20.5762 N   0  0  0  0  0  0  0  0  0  0  0  0
  1  2  1  0
  3  2  1  1
  3  4  1  0
  4  5  1  0
  5  6  2  0
  5  7  1  0
  7  8  2  0
  8  9  1  0
  9 10  1  0
  9 11  1  0
 11 12  2  0
 12 13  1  0
 13 14  2  0
 14 15  1  0
 14 16  1  0
 16 17  2  0
  3 18  1  0
 18 19  1  0
 19 20  2  0
 20 21  1  0
 21 22  2  0
 22 23  1  0
 22 24  1  0
 24 25  2  0
 18 26  1  6
 26 27  1  0
 27 28  2  0
 28 29  1  0
 29 30  2  0
 17  7  1  0
 25 19  1  0
 30 26  1  0
 17 11  1  0
M  END
>  <alias>  (436) 
None

>  <rmsd(smina/fragmenstein)>  (436) 
0.453

>  <smiles>  (436) 
CC[C@@H](NC(=O)c1nn(C)c2ccc(F)cc12)[C@H](c1ccc(C)cc1)n1cncn1

>  <gnina_score>  (436) 
5.2

>  <inspiration_score>  (436) 
None

>  <energy_score>  (436) 
-26.71585

>  <distance_score>  (436) 
0.732642

>  <gnina_score_min>  (436) 
5.183

>  <inchikey>  (436) 
SSZQMMXISQWGMF-NQIIRXRSSA-N

>  <exports>  (436) 
['/opt/xchem-fragalysis-2/maxwin/BulkDock/OUTPUTS/openbind_a71ev2a_c2_elabs_1LOUU54.sdf', '/opt/xchem-fragalysis-2/maxwin/BulkDock/OUTPUTS/openbind_a71ev2a_c2_elabs_1LSYIDY.sdf']

>  <name>  (436) 
P578308

>  <ref_pdb>  (436) 
A3181b

>  <subsites>  (436) 
None

>  <HIPPO Pose ID>  (436) 
578308

>  <ref_mols>  (436) 
A3181b

>  <HIPPO Compound ID>  (436) 
299845

>  <tags>  (436) 
openbind_a71ev2a_c2_elabs,syndirella_product,openbind_a71ev2a_c2_elabs_scored,BulkDock Fragalysis export,openbind_a71ev2a_c2_elabs_scored_top80percent,openbind_a71ev2a_c2_elabs_scored_top80percent_despaghettified,syndirella_placed,openbind_a71ev2a_c1_elabs_filtered

>  <smina_score_min>  (436) 
-5.795

$$$$
P578355
     RDKit          3D

 22 23  0  0  0  0  0  0  0  0999 V2000
    9.4279    9.1810   23.3015 C   0  0  0  0  0  0  0  0  0  0  0  0
    9.2337   10.4696   23.8441 O   0  0  0  0  0  0  0  0  0  0  0  0
    8.2096   10.7041   24.7147 C   0  0  0  0  0  0  0  0  0  0  0  0
    7.3387    9.7748   25.2454 C   0  0  0  0  0  0  0  0  0  0  0  0
    6.3745   10.1841   26.1549 C   0  0  0  0  0  0  0  0  0  0  0  0
    6.2112   11.4582   26.5463 N   0  0  0  0  0  0  0  0  0  0  0  0
    7.0514   12.3606   25.9987 C   0  0  0  0  0  0  0  0  0  0  0  0
    8.0869   12.0251   25.1296 C   0  0  0  0  0  0  0  0  0  0  0  0
    9.1453   13.0051   24.7625 C   0  0  0  0  0  0  0  0  0  0  0  0
    8.7331   14.1708   23.9108 C   0  0  0  0  0  0  0  0  0  0  0  0
    7.8227   14.8815   24.2440 O   0  0  0  0  0  0  0  0  0  0  0  0
    9.6485   14.2760   22.8013 N   0  0  0  0  0  0  0  0  0  0  0  0
   10.8600   15.0416   23.2146 C   0  0  2  0  0  0  0  0  0  0  0  0
   10.7613   16.3913   23.8940 C   0  0  0  0  0  0  0  0  0  0  0  0
   12.1457   14.7401   22.4637 C   0  0  0  0  0  0  0  0  0  0  0  0
   12.2692   15.6917   21.3259 C   0  0  0  0  0  0  0  0  0  0  0  0
   10.8809   15.9356   20.7951 C   0  0  1  0  0  0  0  0  0  0  0  0
   10.8798   15.7243   19.2611 C   0  0  0  0  0  0  0  0  0  0  0  0
   11.1672   14.3750   18.8588 N   0  0  0  0  0  0  0  0  0  0  0  0
   10.7200   16.7134   18.6088 O   0  0  0  0  0  0  0  0  0  0  0  0
    9.6838   15.2880   21.5937 C   0  0  2  0  0  0  0  0  0  0  0  0
    8.5066   16.2934   21.7188 C   0  0  0  0  0  0  0  0  0  0  0  0
  1  2  1  0
  2  3  1  0
  3  4  2  0
  4  5  1  0
  5  6  2  0
  6  7  1  0
  7  8  2  0
  8  9  1  0
  9 10  1  0
 10 11  2  0
 10 12  1  0
 12 13  1  0
 13 14  1  6
 13 15  1  0
 15 16  1  0
 16 17  1  0
 17 18  1  6
 18 19  1  0
 18 20  2  0
 17 21  1  0
 21 22  1  1
  8  3  1  0
 21 12  1  0
M  END
>  <alias>  (437) 
None

>  <rmsd(smina/fragmenstein)>  (437) 
0.441

>  <smiles>  (437) 
COc1ccncc1CC(=O)N1[C@H](C)CC[C@@H](C(N)=O)[C@@H]1C

>  <gnina_score>  (437) 
6.132

>  <inspiration_score>  (437) 
None

>  <energy_score>  (437) 
-44.112452

>  <distance_score>  (437) 
0.718426

>  <gnina_score_min>  (437) 
6.333

>  <inchikey>  (437) 
BCOSJGSHKHWROP-NTZNESFSSA-N

>  <exports>  (437) 
['/opt/xchem-fragalysis-2/maxwin/BulkDock/OUTPUTS/openbind_a71ev2a_c2_elabs_1LOUU54.sdf', '/opt/xchem-fragalysis-2/maxwin/BulkDock/OUTPUTS/openbind_a71ev2a_c2_elabs_1LSYIDY.sdf']

>  <name>  (437) 
P578355

>  <ref_pdb>  (437) 
A3548a

>  <subsites>  (437) 
None

>  <HIPPO Pose ID>  (437) 
578355

>  <ref_mols>  (437) 
A3548a

>  <HIPPO Compound ID>  (437) 
419984

>  <tags>  (437) 
openbind_a71ev2a_c2_elabs,syndirella_product,openbind_a71ev2a_c2_elabs_scored,BulkDock Fragalysis export,openbind_a71ev2a_c2_elabs_scored_top80percent,openbind_a71ev2a_c2_elabs_scored_6plus,openbind_a71ev2a_c2_elabs_scored_top80percent_despaghettified,syndirella_placed

>  <smina_score_min>  (437) 
-7.419

$$$$
P578357
     RDKit          3D

 27 30  0  0  0  0  0  0  0  0999 V2000
   11.4875   14.0143   18.2845 O   0  0  0  0  0  0  0  0  0  0  0  0
   10.8965   14.8342   18.9512 C   0  0  0  0  0  0  0  0  0  0  0  0
   10.8623   16.1481   18.6948 N   0  0  0  0  0  0  0  0  0  0  0  0
   10.2777   16.7692   19.7441 C   0  0  0  0  0  0  0  0  0  0  0  0
    9.8759   17.9209   19.7658 O   0  0  0  0  0  0  0  0  0  0  0  0
   10.2951   15.8013   20.9184 C   0  0  1  0  0  0  0  0  0  0  0  0
   11.6390   15.7977   21.6288 C   0  0  0  0  0  0  0  0  0  0  0  0
   11.3839   14.9408   22.8413 C   0  0  0  0  0  0  0  0  0  0  0  0
   10.1691   15.5590   23.5285 C   0  0  0  0  0  0  0  0  0  0  0  0
    8.7244   15.3598   23.0867 N   0  0  0  0  0  0  0  0  0  0  0  0
    8.3788   14.0001   23.1593 C   0  0  0  0  0  0  0  0  0  0  0  0
    8.4515   13.1341   22.3345 O   0  0  0  0  0  0  0  0  0  0  0  0
    7.9276   13.6274   24.6121 C   0  0  1  0  0  0  0  0  0  0  0  0
    6.5337   14.2465   24.8845 C   0  0  0  0  0  0  0  0  0  0  0  0
    6.5931   15.6471   25.3469 N   0  0  0  0  0  0  0  0  0  0  0  0
    7.0082   15.7945   26.7398 C   0  0  0  0  0  0  0  0  0  0  0  0
    6.6520   17.2426   27.0196 C   0  0  0  0  0  0  0  0  0  0  0  0
    5.3723   17.4725   26.2293 C   0  0  0  0  0  0  0  0  0  0  0  0
    5.2848   16.3041   25.2554 C   0  0  0  0  0  0  0  0  0  0  0  0
    8.0674   12.1104   24.7830 C   0  0  0  0  0  0  0  0  0  0  0  0
    7.0329   11.2790   25.2113 C   0  0  0  0  0  0  0  0  0  0  0  0
    7.1866    9.8988   25.1637 C   0  0  0  0  0  0  0  0  0  0  0  0
    8.3540    9.3404   24.6566 C   0  0  0  0  0  0  0  0  0  0  0  0
    9.4237   10.1418   24.3093 C   0  0  0  0  0  0  0  0  0  0  0  0
    9.2966   11.5164   24.4144 C   0  0  0  0  0  0  0  0  0  0  0  0
    9.1901   16.1977   21.9204 C   0  0  0  0  0  0  0  0  0  0  0  0
   10.2262   14.5979   20.1410 N   0  0  0  0  0  0  0  0  0  0  0  0
  1  2  2  0
  2  3  1  0
  3  4  1  0
  4  5  2  0
  4  6  1  0
  6  7  1  1
  7  8  1  0
  8  9  1  0
  9 10  1  0
 10 11  1  0
 11 12  2  0
 11 13  1  0
 13 14  1  6
 14 15  1  0
 15 16  1  0
 16 17  1  0
 17 18  1  0
 18 19  1  0
 13 20  1  0
 20 21  2  0
 21 22  1  0
 22 23  2  0
 23 24  1  0
 24 25  2  0
 10 26  1  0
  6 27  1  0
 27  2  1  0
 26  6  1  0
 19 15  1  0
 25 20  1  0
M  END
>  <alias>  (438) 
None

>  <rmsd(smina/fragmenstein)>  (438) 
1.013

>  <smiles>  (438) 
O=C1NC(=O)[C@]2(CCCN(C(=O)[C@@H](CN3CCCC3)c3ccccc3)C2)N1

>  <gnina_score>  (438) 
6.167

>  <inspiration_score>  (438) 
None

>  <energy_score>  (438) 
-8.001271

>  <distance_score>  (438) 
0.788814

>  <gnina_score_min>  (438) 
6.268

>  <inchikey>  (438) 
GIDOQJQPXQSOPB-OXJNMPFZSA-N

>  <exports>  (438) 
['/opt/xchem-fragalysis-2/maxwin/BulkDock/OUTPUTS/openbind_a71ev2a_c2_elabs_1LOUU54.sdf', '/opt/xchem-fragalysis-2/maxwin/BulkDock/OUTPUTS/openbind_a71ev2a_c2_elabs_1LSYIDY.sdf']

>  <name>  (438) 
P578357

>  <ref_pdb>  (438) 
A3975a

>  <subsites>  (438) 
None

>  <HIPPO Pose ID>  (438) 
578357

>  <ref_mols>  (438) 
A3975a

>  <HIPPO Compound ID>  (438) 
425239

>  <tags>  (438) 
openbind_a71ev2a_c2_elabs,syndirella_product,openbind_a71ev2a_c2_elabs_scored,BulkDock Fragalysis export,openbind_a71ev2a_c2_elabs_scored_top80percent,openbind_a71ev2a_c2_elabs_scored_6plus,openbind_a71ev2a_c2_elabs_scored_top80percent_despaghettified,syndirella_placed

>  <smina_score_min>  (438) 
-7.942

$$$$
P578359
     RDKit          3D

 26 27  0  0  0  0  0  0  0  0999 V2000
    9.5039   12.1670   16.0982 C   0  0  0  0  0  0  0  0  0  0  0  0
   10.3510   13.2271   16.7769 O   0  0  0  0  0  0  0  0  0  0  0  0
   10.3121   14.1769   17.8151 C   0  0  0  0  0  0  0  0  0  0  0  0
   11.5363   14.9933   18.2575 C   0  0  0  0  0  0  0  0  0  0  0  0
   11.3116   15.1734   19.6809 N   0  0  0  0  0  0  0  0  0  0  0  0
   10.5553   16.1370   20.3864 C   0  0  0  0  0  0  0  0  0  0  0  0
    9.9686   17.1053   20.0015 O   0  0  0  0  0  0  0  0  0  0  0  0
   10.4105   15.7836   21.8601 C   0  0  2  0  0  0  0  0  0  0  0  0
   11.5789   15.4014   22.7039 C   0  0  0  0  0  0  0  0  0  0  0  0
   10.9561   15.2594   24.0864 C   0  0  0  0  0  0  0  0  0  0  0  0
    9.4485   14.8288   24.0018 C   0  0  1  0  0  0  0  0  0  0  0  0
    8.3177   15.8730   24.1788 C   0  0  0  0  0  0  0  0  0  0  0  0
    9.2152   13.6226   23.1231 N   0  0  0  0  0  0  0  0  0  0  0  0
    8.0776   12.8886   23.5888 C   0  0  0  0  0  0  0  0  0  0  0  0
    6.9179   12.9777   23.2903 O   0  0  0  0  0  0  0  0  0  0  0  0
    8.4836   11.9045   24.7080 C   0  0  0  0  0  0  0  0  0  0  0  0
    7.2988   11.5083   25.5757 C   0  0  0  0  0  0  0  0  0  0  0  0
    6.4931   12.3216   26.3032 C   0  0  0  0  0  0  0  0  0  0  0  0
    6.6594   13.8006   26.4717 C   0  0  0  0  0  0  0  0  0  0  0  0
    5.3548   11.7908   27.0366 C   0  0  0  0  0  0  0  0  0  0  0  0
    5.0984   10.4793   27.0521 C   0  0  0  0  0  0  0  0  0  0  0  0
    3.9728    9.8506   27.8085 C   0  0  0  0  0  0  0  0  0  0  0  0
    5.9174    9.6398   26.3487 N   0  0  0  0  0  0  0  0  0  0  0  0
    7.0112   10.0383   25.6220 C   0  0  0  0  0  0  0  0  0  0  0  0
    7.7379    9.2199   25.0685 O   0  0  0  0  0  0  0  0  0  0  0  0
    9.3384   14.6746   22.0146 C   0  0  0  0  0  0  0  0  0  0  0  0
  1  2  1  0
  2  3  1  0
  3  4  1  0
  4  5  1  0
  5  6  1  0
  6  7  2  0
  8  6  1  6
  8  9  1  0
  9 10  1  0
 10 11  1  0
 11 12  1  6
 11 13  1  0
 13 14  1  0
 14 15  2  0
 14 16  1  0
 16 17  1  0
 17 18  2  0
 18 19  1  0
 18 20  1  0
 20 21  2  0
 21 22  1  0
 21 23  1  0
 23 24  1  0
 24 25  2  0
 13 26  1  0
 26  8  1  0
 24 17  1  0
M  END
>  <alias>  (439) 
None

>  <rmsd(smina/fragmenstein)>  (439) 
2.186

>  <smiles>  (439) 
COCCNC(=O)[C@@H]1CC[C@@H](C)N(C(=O)Cc2c(C)cc(C)[nH]c2=O)C1

>  <gnina_score>  (439) 
5.536

>  <inspiration_score>  (439) 
None

>  <energy_score>  (439) 
-85.975983

>  <distance_score>  (439) 
1.263371

>  <gnina_score_min>  (439) 
6.104

>  <inchikey>  (439) 
UYDQMUZEMQTUBD-HUUCEWRRSA-N

>  <exports>  (439) 
['/opt/xchem-fragalysis-2/maxwin/BulkDock/OUTPUTS/openbind_a71ev2a_c2_elabs_1LOUU54.sdf', '/opt/xchem-fragalysis-2/maxwin/BulkDock/OUTPUTS/openbind_a71ev2a_c2_elabs_1LSYIDY.sdf']

>  <name>  (439) 
P578359

>  <ref_pdb>  (439) 
A4291a

>  <subsites>  (439) 
None

>  <HIPPO Pose ID>  (439) 
578359

>  <ref_mols>  (439) 
A4291a

>  <HIPPO Compound ID>  (439) 
425478

>  <tags>  (439) 
openbind_a71ev2a_c2_elabs,syndirella_product,openbind_a71ev2a_c2_elabs_scored,BulkDock Fragalysis export,openbind_a71ev2a_c2_elabs_scored_top80percent,openbind_a71ev2a_c2_elabs_scored_6plus,openbind_a71ev2a_c2_elabs_scored_top80percent_despaghettified,syndirella_placed

>  <smina_score_min>  (439) 
-7.477

$$$$
P578376
     RDKit          3D

 26 27  0  0  0  0  0  0  0  0999 V2000
    8.7970   18.5710   20.6870 C   0  0  0  0  0  0  0  0  0  0  0  0
    9.9022   17.6466   20.2601 C   0  0  0  0  0  0  0  0  0  0  0  0
    9.4777   15.9602   19.8707 S   0  0  0  0  0  0  0  0  0  0  0  0
    9.4442   15.8411   18.4324 O   0  0  0  0  0  0  0  0  0  0  0  0
    8.3723   15.5711   20.7297 O   0  0  0  0  0  0  0  0  0  0  0  0
   10.7192   14.9995   20.3648 N   0  0  0  0  0  0  0  0  0  0  0  0
   12.0942   15.2949   20.0192 C   0  0  0  0  0  0  0  0  0  0  0  0
   12.7511   16.0336   21.2040 C   0  0  0  0  0  0  0  0  0  0  0  0
   12.4589   15.3788   22.5566 C   0  0  0  0  0  0  0  0  0  0  0  0
   10.9770   15.2983   22.7127 C   0  0  2  0  0  0  0  0  0  0  0  0
   10.4382   14.7591   23.9868 C   0  0  0  0  0  0  0  0  0  0  0  0
   11.0273   14.2025   24.8244 O   0  0  0  0  0  0  0  0  0  0  0  0
    8.9181   15.0401   23.8428 N   0  0  0  0  0  0  0  0  0  0  0  0
    7.9162   14.6518   24.5730 N   0  0  0  0  0  0  0  0  0  0  0  0
    6.4222   14.4815   24.2168 C   0  0  0  0  0  0  0  0  0  0  0  0
    5.8465   14.7363   23.2384 O   0  0  0  0  0  0  0  0  0  0  0  0
    5.8593   13.7949   25.4145 C   0  0  0  0  0  0  0  0  0  0  0  0
    6.4312   12.3769   25.5656 C   0  0  0  0  0  0  0  0  0  0  0  0
    7.4157   11.7818   24.7335 C   0  0  0  0  0  0  0  0  0  0  0  0
    7.7202   10.4341   24.8670 C   0  0  0  0  0  0  0  0  0  0  0  0
    7.0576    9.6288   25.7111 N   0  0  0  0  0  0  0  0  0  0  0  0
    6.1478   10.2244   26.5033 C   0  0  0  0  0  0  0  0  0  0  0  0
    5.4459    9.3844   27.3065 O   0  0  0  0  0  0  0  0  0  0  0  0
    5.8583   11.5717   26.5330 C   0  0  0  0  0  0  0  0  0  0  0  0
    4.7014   12.2840   27.8437 Br  0  0  0  0  0  0  0  0  0  0  0  0
   10.5634   14.3043   21.6308 C   0  0  0  0  0  0  0  0  0  0  0  0
  1  2  1  0
  2  3  1  0
  3  4  2  0
  3  5  2  0
  3  6  1  0
  6  7  1  0
  7  8  1  0
  8  9  1  0
  9 10  1  0
 10 11  1  1
 11 12  2  0
 11 13  1  0
 13 14  1  0
 14 15  1  0
 15 16  2  0
 15 17  1  0
 17 18  1  0
 18 19  2  0
 19 20  1  0
 20 21  2  0
 21 22  1  0
 22 23  1  0
 22 24  2  0
 24 25  1  0
 10 26  1  0
 26  6  1  0
 24 18  1  0
M  END
>  <alias>  (440) 
None

>  <rmsd(smina/fragmenstein)>  (440) 
0.932

>  <smiles>  (440) 
CCS(=O)(=O)N1CCC[C@H](C(=O)NNC(=O)Cc2ccnc(O)c2Br)C1

>  <gnina_score>  (440) 
5.872

>  <inspiration_score>  (440) 
None

>  <energy_score>  (440) 
-4.443242

>  <distance_score>  (440) 
1.883687

>  <gnina_score_min>  (440) 
5.711

>  <inchikey>  (440) 
VBEVWDQVBWSICZ-NSHDSACASA-N

>  <exports>  (440) 
['/opt/xchem-fragalysis-2/maxwin/BulkDock/OUTPUTS/openbind_a71ev2a_c2_elabs_1LOUU54.sdf', '/opt/xchem-fragalysis-2/maxwin/BulkDock/OUTPUTS/openbind_a71ev2a_c2_elabs_1LSYIDY.sdf']

>  <name>  (440) 
P578376

>  <ref_pdb>  (440) 
A4343a

>  <subsites>  (440) 
None

>  <HIPPO Pose ID>  (440) 
578376

>  <ref_mols>  (440) 
A4343a

>  <HIPPO Compound ID>  (440) 
392890

>  <tags>  (440) 
openbind_a71ev2a_c2_elabs,syndirella_product,openbind_a71ev2a_c2_elabs_scored,BulkDock Fragalysis export,openbind_a71ev2a_c2_elabs_scored_top80percent,openbind_a71ev2a_c2_elabs_scored_top80percent_despaghettified,syndirella_placed

>  <smina_score_min>  (440) 
-6.047

$$$$
P578442
     RDKit          3D

 21 23  0  0  0  0  0  0  0  0999 V2000
    9.3290    9.9958   23.7285 C   0  0  0  0  0  0  0  0  0  0  0  0
    8.9857   11.1333   24.5197 O   0  0  0  0  0  0  0  0  0  0  0  0
    7.8345   11.0587   25.2577 C   0  0  0  0  0  0  0  0  0  0  0  0
    7.2460    9.8658   25.6606 C   0  0  0  0  0  0  0  0  0  0  0  0
    6.1338    9.9165   26.4873 C   0  0  0  0  0  0  0  0  0  0  0  0
    5.5827   11.0569   26.9417 N   0  0  0  0  0  0  0  0  0  0  0  0
    6.1317   12.2024   26.4822 C   0  0  0  0  0  0  0  0  0  0  0  0
    7.2439   12.2685   25.6452 C   0  0  0  0  0  0  0  0  0  0  0  0
    7.7385   13.6171   25.1849 C   0  0  0  0  0  0  0  0  0  0  0  0
    7.7714   13.8231   23.6595 C   0  0  0  0  0  0  0  0  0  0  0  0
    7.4412   12.9547   22.8945 O   0  0  0  0  0  0  0  0  0  0  0  0
    8.2990   15.1411   23.4081 N   0  0  0  0  0  0  0  0  0  0  0  0
    8.5033   15.9107   22.0797 C   0  0  0  0  0  0  0  0  0  0  0  0
    9.3875   15.4335   20.8936 C   0  0  1  0  0  0  0  0  0  0  0  0
   10.6777   16.2451   20.7141 C   0  0  0  0  0  0  0  0  0  0  0  0
   11.9901   15.4961   21.0393 C   0  0  2  0  0  0  0  0  0  0  0  0
   12.4206   14.8451   19.8386 O   0  0  0  0  0  0  0  0  0  0  0  0
   11.9031   14.4581   22.1699 C   0  0  0  0  0  0  0  0  0  0  0  0
   10.4650   14.0369   22.4603 C   0  0  2  0  0  0  0  0  0  0  0  0
    9.7211   14.0150   21.1549 C   0  0  0  0  0  0  0  0  0  0  0  0
    9.8014   15.0976   23.3651 C   0  0  0  0  0  0  0  0  0  0  0  0
  1  2  1  0
  2  3  1  0
  3  4  2  0
  4  5  1  0
  5  6  2  0
  6  7  1  0
  7  8  2  0
  8  9  1  0
  9 10  1  0
 10 11  2  0
 10 12  1  0
 12 13  1  0
 14 13  1  1
 14 15  1  0
 15 16  1  0
 16 17  1  6
 16 18  1  0
 19 18  1  6
 19 20  1  0
 19 21  1  0
  8  3  1  0
 21 12  1  0
 20 14  1  0
M  END
>  <alias>  (441) 
None

>  <rmsd(smina/fragmenstein)>  (441) 
0.318

>  <smiles>  (441) 
COc1ccncc1CC(=O)N1C[C@@H]2C[C@@H](O)C[C@@H](C2)C1

>  <gnina_score>  (441) 
5.411

>  <inspiration_score>  (441) 
None

>  <energy_score>  (441) 
-30.128103

>  <distance_score>  (441) 
1.521765

>  <gnina_score_min>  (441) 
5.345

>  <inchikey>  (441) 
XHOLQQQYDQDZOA-IMRBUKKESA-N

>  <exports>  (441) 
['/opt/xchem-fragalysis-2/maxwin/BulkDock/OUTPUTS/openbind_a71ev2a_c2_elabs_1LOUU54.sdf', '/opt/xchem-fragalysis-2/maxwin/BulkDock/OUTPUTS/openbind_a71ev2a_c2_elabs_1LSYIDY.sdf']

>  <name>  (441) 
P578442

>  <ref_pdb>  (441) 
A4423a

>  <subsites>  (441) 
None

>  <HIPPO Pose ID>  (441) 
578442

>  <ref_mols>  (441) 
A4423a

>  <HIPPO Compound ID>  (441) 
431061

>  <tags>  (441) 
openbind_a71ev2a_c2_elabs,syndirella_product,openbind_a71ev2a_c2_elabs_scored,BulkDock Fragalysis export,openbind_a71ev2a_c2_elabs_scored_top80percent,openbind_a71ev2a_c2_elabs_scored_top80percent_despaghettified,syndirella_placed

>  <smina_score_min>  (441) 
-6.896

$$$$
P578444
     RDKit          3D

 22 23  0  0  0  0  0  0  0  0999 V2000
    9.3070    9.6195   23.5068 C   0  0  0  0  0  0  0  0  0  0  0  0
    8.6744   10.8539   23.8718 O   0  0  0  0  0  0  0  0  0  0  0  0
    7.8140   10.8435   24.9388 C   0  0  0  0  0  0  0  0  0  0  0  0
    7.3038    9.6817   25.5020 C   0  0  0  0  0  0  0  0  0  0  0  0
    6.4070    9.7836   26.5554 C   0  0  0  0  0  0  0  0  0  0  0  0
    6.0486   10.9395   27.1338 N   0  0  0  0  0  0  0  0  0  0  0  0
    6.5065   12.0555   26.5434 C   0  0  0  0  0  0  0  0  0  0  0  0
    7.3404   12.0725   25.4260 C   0  0  0  0  0  0  0  0  0  0  0  0
    7.4801   13.3877   24.7153 C   0  0  0  0  0  0  0  0  0  0  0  0
    8.8419   14.0367   24.7856 C   0  0  0  0  0  0  0  0  0  0  0  0
    9.1154   14.8958   25.5243 O   0  0  0  0  0  0  0  0  0  0  0  0
    9.6649   13.3954   23.6498 N   0  0  0  0  0  0  0  0  0  0  0  0
   10.9601   13.7404   23.1231 C   0  0  2  0  0  0  0  0  0  0  0  0
   11.7846   14.6367   24.0405 C   0  0  0  0  0  0  0  0  0  0  0  0
   11.9141   14.1010   25.3561 O   0  0  0  0  0  0  0  0  0  0  0  0
   10.7695   14.3071   21.7090 C   0  0  2  0  0  0  0  0  0  0  0  0
   12.0750   14.3421   20.9420 C   0  0  0  0  0  0  0  0  0  0  0  0
   11.7972   14.5996   19.4813 C   0  0  0  0  0  0  0  0  0  0  0  0
   10.8567   15.7283   19.2247 C   0  0  0  0  0  0  0  0  0  0  0  0
   10.8161   16.2765   18.1331 O   0  0  0  0  0  0  0  0  0  0  0  0
    9.9885   16.0757   20.2083 N   0  0  0  0  0  0  0  0  0  0  0  0
   10.1655   15.7003   21.5857 C   0  0  0  0  0  0  0  0  0  0  0  0
  1  2  1  0
  2  3  1  0
  3  4  2  0
  4  5  1  0
  5  6  2  0
  6  7  1  0
  7  8  2  0
  8  9  1  0
  9 10  1  0
 10 11  2  0
 10 12  1  0
 12 13  1  0
 13 14  1  1
 14 15  1  0
 13 16  1  0
 16 17  1  1
 17 18  1  0
 18 19  1  0
 19 20  2  0
 19 21  1  0
 21 22  1  0
  8  3  1  0
 22 16  1  0
M  END
>  <alias>  (442) 
None

>  <rmsd(smina/fragmenstein)>  (442) 
1.166

>  <smiles>  (442) 
COc1ccncc1CC(=O)N[C@H](CO)[C@@H]1CCC(=O)NC1

>  <gnina_score>  (442) 
5.331

>  <inspiration_score>  (442) 
None

>  <energy_score>  (442) 
-33.828957

>  <distance_score>  (442) 
1.89173

>  <gnina_score_min>  (442) 
5.217

>  <inchikey>  (442) 
UOZRJCIYCKUDPW-ZYHUDNBSSA-N

>  <exports>  (442) 
['/opt/xchem-fragalysis-2/maxwin/BulkDock/OUTPUTS/openbind_a71ev2a_c2_elabs_1LOUU54.sdf', '/opt/xchem-fragalysis-2/maxwin/BulkDock/OUTPUTS/openbind_a71ev2a_c2_elabs_1LSYIDY.sdf']

>  <name>  (442) 
P578444

>  <ref_pdb>  (442) 
A4423a

>  <subsites>  (442) 
None

>  <HIPPO Pose ID>  (442) 
578444

>  <ref_mols>  (442) 
A4423a

>  <HIPPO Compound ID>  (442) 
431077

>  <tags>  (442) 
openbind_a71ev2a_c2_elabs,syndirella_product,openbind_a71ev2a_c2_elabs_scored,BulkDock Fragalysis export,openbind_a71ev2a_c2_elabs_scored_top80percent,openbind_a71ev2a_c2_elabs_scored_top80percent_despaghettified,syndirella_placed

>  <smina_score_min>  (442) 
-6.533

$$$$
P578447
     RDKit          3D

 25 27  0  0  0  0  0  0  0  0999 V2000
    9.2019    9.3986   23.6921 C   0  0  0  0  0  0  0  0  0  0  0  0
    8.8177   10.4949   24.5245 O   0  0  0  0  0  0  0  0  0  0  0  0
    7.6738   10.3871   25.2688 C   0  0  0  0  0  0  0  0  0  0  0  0
    6.8956    9.2594   25.3653 C   0  0  0  0  0  0  0  0  0  0  0  0
    5.7349    9.2933   26.1327 C   0  0  0  0  0  0  0  0  0  0  0  0
    5.3176   10.3500   26.8446 N   0  0  0  0  0  0  0  0  0  0  0  0
    6.0713   11.4449   26.7337 C   0  0  0  0  0  0  0  0  0  0  0  0
    7.2487   11.4974   25.9950 C   0  0  0  0  0  0  0  0  0  0  0  0
    8.0202   12.7453   26.0582 C   0  0  0  0  0  0  0  0  0  0  0  0
    7.5948   13.8289   25.1353 C   0  0  0  0  0  0  0  0  0  0  0  0
    6.4674   14.2752   25.0120 O   0  0  0  0  0  0  0  0  0  0  0  0
    8.7155   14.3071   24.5124 N   0  0  0  0  0  0  0  0  0  0  0  0
    9.4424   15.3198   25.2008 C   0  0  0  0  0  0  0  0  0  0  0  0
   10.8965   14.9232   25.4149 C   0  0  0  0  0  0  0  0  0  0  0  0
   11.4688   14.1520   24.2219 C   0  0  0  0  0  0  0  0  0  0  0  0
   10.5809   14.3600   22.9921 C   0  0  2  0  0  0  0  0  0  0  0  0
    9.1609   13.8271   23.2232 C   0  0  0  0  0  0  0  0  0  0  0  0
   11.1757   13.8047   21.7046 C   0  0  0  0  0  0  0  0  0  0  0  0
   11.3893   15.2130   21.1384 C   0  0  1  0  0  0  0  0  0  0  0  0
   12.7781   15.6401   21.1190 O   0  0  0  0  0  0  0  0  0  0  0  0
   10.6411   15.4271   19.8184 C   0  0  0  0  0  0  0  0  0  0  0  0
   11.2638   14.7631   18.8180 F   0  0  0  0  0  0  0  0  0  0  0  0
    9.3702   14.9700   19.9237 F   0  0  0  0  0  0  0  0  0  0  0  0
   10.5590   16.7286   19.4761 F   0  0  0  0  0  0  0  0  0  0  0  0
   10.6337   15.7651   22.3502 C   0  0  0  0  0  0  0  0  0  0  0  0
  1  2  1  0
  2  3  1  0
  3  4  2  0
  4  5  1  0
  5  6  2  0
  6  7  1  0
  7  8  2  0
  8  9  1  0
  9 10  1  0
 10 11  2  0
 10 12  1  0
 12 13  1  0
 13 14  1  0
 14 15  1  0
 16 15  1  1
 16 17  1  0
 16 18  1  0
 18 19  1  0
 19 20  1  6
 19 21  1  0
 21 22  1  0
 21 23  1  0
 21 24  1  0
 19 25  1  0
  8  3  1  0
 17 12  1  0
 25 16  1  0
M  END
>  <alias>  (443) 
None

>  <rmsd(smina/fragmenstein)>  (443) 
0.574

>  <smiles>  (443) 
COc1ccncc1CC(=O)N1CCC[C@]2(C1)C[C@@](O)(C(F)(F)F)C2

>  <gnina_score>  (443) 
5.674

>  <inspiration_score>  (443) 
None

>  <energy_score>  (443) 
-15.533462

>  <distance_score>  (443) 
1.374568

>  <gnina_score_min>  (443) 
5.614

>  <inchikey>  (443) 
IQSIKHOOEPPVIX-WKILWMFISA-N

>  <exports>  (443) 
['/opt/xchem-fragalysis-2/maxwin/BulkDock/OUTPUTS/openbind_a71ev2a_c2_elabs_1LOUU54.sdf', '/opt/xchem-fragalysis-2/maxwin/BulkDock/OUTPUTS/openbind_a71ev2a_c2_elabs_1LSYIDY.sdf']

>  <name>  (443) 
P578447

>  <ref_pdb>  (443) 
A4423a

>  <subsites>  (443) 
None

>  <HIPPO Pose ID>  (443) 
578447

>  <ref_mols>  (443) 
A4423a

>  <HIPPO Compound ID>  (443) 
431124

>  <tags>  (443) 
openbind_a71ev2a_c2_elabs,syndirella_product,openbind_a71ev2a_c2_elabs_scored,BulkDock Fragalysis export,openbind_a71ev2a_c2_elabs_scored_top80percent,openbind_a71ev2a_c2_elabs_scored_top80percent_despaghettified,syndirella_placed

>  <smina_score_min>  (443) 
-6.959

$$$$
P578506
     RDKit          3D

 27 29  0  0  0  0  0  0  0  0999 V2000
    9.5325   15.6673   18.8469 C   0  0  0  0  0  0  0  0  0  0  0  0
   11.2098   15.2208   18.8387 S   0  0  0  0  0  0  0  0  0  0  0  0
   11.8418   16.2752   18.1015 O   0  0  0  0  0  0  0  0  0  0  0  0
   11.3685   13.8648   18.4001 O   0  0  0  0  0  0  0  0  0  0  0  0
   11.5444   15.3173   20.5356 N   0  0  0  0  0  0  0  0  0  0  0  0
   10.8679   16.3878   21.2891 C   0  0  0  0  0  0  0  0  0  0  0  0
   11.4835   16.5232   22.6659 C   0  0  0  0  0  0  0  0  0  0  0  0
   12.3953   15.4057   23.1106 C   0  0  0  0  0  0  0  0  0  0  0  0
   11.9011   14.0453   22.6910 C   0  0  1  0  0  0  0  0  0  0  0  0
   10.9161   13.5129   23.7287 C   0  0  0  0  0  0  0  0  0  0  0  0
   11.3256   12.7746   24.5782 O   0  0  0  0  0  0  0  0  0  0  0  0
    9.6234   14.0880   23.5359 N   0  0  0  0  0  0  0  0  0  0  0  0
    8.5305   14.0415   24.2851 N   0  0  0  0  0  0  0  0  0  0  0  0
    7.1702   13.7369   23.9447 C   0  0  0  0  0  0  0  0  0  0  0  0
    6.6593   13.5242   22.8835 O   0  0  0  0  0  0  0  0  0  0  0  0
    6.3460   13.7496   25.2264 C   0  0  0  0  0  0  0  0  0  0  0  0
    5.9344   12.4168   25.8093 C   0  0  0  0  0  0  0  0  0  0  0  0
    4.7312   12.4564   26.5558 C   0  0  0  0  0  0  0  0  0  0  0  0
    4.2402   11.2970   27.1076 C   0  0  0  0  0  0  0  0  0  0  0  0
    4.8826   10.1044   26.9373 C   0  0  0  0  0  0  0  0  0  0  0  0
    6.0501   10.0117   26.2225 C   0  0  0  0  0  0  0  0  0  0  0  0
    6.6151   11.1796   25.6997 C   0  0  0  0  0  0  0  0  0  0  0  0
    8.3240   10.9133   24.9169 Br  0  0  0  0  0  0  0  0  0  0  0  0
    4.2551    9.0812   27.5648 O   0  0  0  0  0  0  0  0  0  0  0  0
    3.1300    9.7623   28.1455 C   0  0  0  0  0  0  0  0  0  0  0  0
    3.1073   11.1787   27.8474 O   0  0  0  0  0  0  0  0  0  0  0  0
   11.4493   14.0032   21.2360 C   0  0  0  0  0  0  0  0  0  0  0  0
  1  2  1  0
  2  3  2  0
  2  4  2  0
  2  5  1  0
  5  6  1  0
  6  7  1  0
  7  8  1  0
  8  9  1  0
  9 10  1  1
 10 11  2  0
 10 12  1  0
 12 13  1  0
 13 14  1  0
 14 15  2  0
 14 16  1  0
 16 17  1  0
 17 18  2  0
 18 19  1  0
 19 20  2  0
 20 21  1  0
 21 22  2  0
 22 23  1  0
 20 24  1  0
 24 25  1  0
 25 26  1  0
  9 27  1  0
 27  5  1  0
 22 17  1  0
 26 19  1  0
M  END
>  <alias>  (444) 
None

>  <rmsd(smina/fragmenstein)>  (444) 
2.291

>  <smiles>  (444) 
CS(=O)(=O)N1CCC[C@@H](C(=O)NNC(=O)Cc2cc3c(cc2Br)OCO3)C1

>  <gnina_score>  (444) 
5.628

>  <inspiration_score>  (444) 
None

>  <energy_score>  (444) 
-5.31995

>  <distance_score>  (444) 
1.783379

>  <gnina_score_min>  (444) 
5.129

>  <inchikey>  (444) 
WABWIHABEQOILI-SNVBAGLBSA-N

>  <exports>  (444) 
['/opt/xchem-fragalysis-2/maxwin/BulkDock/OUTPUTS/openbind_a71ev2a_c2_elabs_1LOUU54.sdf', '/opt/xchem-fragalysis-2/maxwin/BulkDock/OUTPUTS/openbind_a71ev2a_c2_elabs_1LSYIDY.sdf']

>  <name>  (444) 
P578506

>  <ref_pdb>  (444) 
A4673a

>  <subsites>  (444) 
None

>  <HIPPO Pose ID>  (444) 
578506

>  <ref_mols>  (444) 
A4673a

>  <HIPPO Compound ID>  (444) 
319921

>  <tags>  (444) 
openbind_a71ev2a_c2_elabs,syndirella_product,openbind_a71ev2a_c2_elabs_scored,BulkDock Fragalysis export,openbind_a71ev2a_c2_elabs_scored_top80percent,openbind_a71ev2a_c2_elabs_scored_top80percent_despaghettified,syndirella_placed

>  <smina_score_min>  (444) 
-6.141

$$$$
P578507
     RDKit          3D

 28 30  0  0  0  0  0  0  0  0999 V2000
   10.9057   16.6521   18.6940 C   0  0  0  0  0  0  0  0  0  0  0  0
   11.9872   15.7622   19.1259 C   0  0  0  0  0  0  0  0  0  0  0  0
   11.4415   14.2084   19.3880 S   0  0  0  0  0  0  0  0  0  0  0  0
   12.6434   13.4532   19.6506 O   0  0  0  0  0  0  0  0  0  0  0  0
   10.6160   13.9094   18.2475 O   0  0  0  0  0  0  0  0  0  0  0  0
   10.5779   14.3875   20.8022 N   0  0  0  0  0  0  0  0  0  0  0  0
    9.4290   15.2652   20.9554 C   0  0  0  0  0  0  0  0  0  0  0  0
    9.7876   16.4767   21.8161 C   0  0  0  0  0  0  0  0  0  0  0  0
   11.1889   16.4374   22.4601 C   0  0  0  0  0  0  0  0  0  0  0  0
   11.7644   15.0692   22.8369 C   0  0  1  0  0  0  0  0  0  0  0  0
   11.5189   14.7500   24.3082 C   0  0  0  0  0  0  0  0  0  0  0  0
   12.3345   14.4274   25.0753 O   0  0  0  0  0  0  0  0  0  0  0  0
    9.9842   14.8591   24.4635 N   0  0  0  0  0  0  0  0  0  0  0  0
    9.2082   14.5360   25.4618 N   0  0  0  0  0  0  0  0  0  0  0  0
    7.6743   14.6284   25.6091 C   0  0  0  0  0  0  0  0  0  0  0  0
    6.8731   15.0782   24.8937 O   0  0  0  0  0  0  0  0  0  0  0  0
    7.3463   13.9029   26.8709 C   0  0  0  0  0  0  0  0  0  0  0  0
    6.7836   12.5240   26.6049 C   0  0  0  0  0  0  0  0  0  0  0  0
    5.5424   12.3236   27.2325 C   0  0  0  0  0  0  0  0  0  0  0  0
    4.9548   11.0938   27.1586 C   0  0  0  0  0  0  0  0  0  0  0  0
    5.5190   10.0657   26.4585 C   0  0  0  0  0  0  0  0  0  0  0  0
    6.7160   10.2026   25.8053 C   0  0  0  0  0  0  0  0  0  0  0  0
    7.3654   11.4412   25.8746 C   0  0  0  0  0  0  0  0  0  0  0  0
    9.0375   11.4446   24.9671 Br  0  0  0  0  0  0  0  0  0  0  0  0
    4.7782    8.9359   26.5424 O   0  0  0  0  0  0  0  0  0  0  0  0
    3.8581    9.3065   27.5883 C   0  0  0  0  0  0  0  0  0  0  0  0
    3.8142   10.7345   27.7985 O   0  0  0  0  0  0  0  0  0  0  0  0
   11.1987   13.9137   22.0311 C   0  0  0  0  0  0  0  0  0  0  0  0
  1  2  1  0
  2  3  1  0
  3  4  2  0
  3  5  2  0
  3  6  1  0
  6  7  1  0
  7  8  1  0
  8  9  1  0
  9 10  1  0
 10 11  1  1
 11 12  2  0
 11 13  1  0
 13 14  1  0
 14 15  1  0
 15 16  2  0
 15 17  1  0
 17 18  1  0
 18 19  2  0
 19 20  1  0
 20 21  2  0
 21 22  1  0
 22 23  2  0
 23 24  1  0
 21 25  1  0
 25 26  1  0
 26 27  1  0
 10 28  1  0
 28  6  1  0
 23 18  1  0
 27 20  1  0
M  END
>  <alias>  (445) 
None

>  <rmsd(smina/fragmenstein)>  (445) 
2.169

>  <smiles>  (445) 
CCS(=O)(=O)N1CCC[C@@H](C(=O)NNC(=O)Cc2cc3c(cc2Br)OCO3)C1

>  <gnina_score>  (445) 
5.835

>  <inspiration_score>  (445) 
None

>  <energy_score>  (445) 
-10.617082

>  <distance_score>  (445) 
1.829322

>  <gnina_score_min>  (445) 
4.957

>  <inchikey>  (445) 
DEPWWBZRHDJLNJ-LLVKDONJSA-N

>  <exports>  (445) 
['/opt/xchem-fragalysis-2/maxwin/BulkDock/OUTPUTS/openbind_a71ev2a_c2_elabs_1LOUU54.sdf', '/opt/xchem-fragalysis-2/maxwin/BulkDock/OUTPUTS/openbind_a71ev2a_c2_elabs_1LSYIDY.sdf']

>  <name>  (445) 
P578507

>  <ref_pdb>  (445) 
A4673a

>  <subsites>  (445) 
None

>  <HIPPO Pose ID>  (445) 
578507

>  <ref_mols>  (445) 
A4673a

>  <HIPPO Compound ID>  (445) 
319940

>  <tags>  (445) 
openbind_a71ev2a_c2_elabs,syndirella_product,openbind_a71ev2a_c2_elabs_scored,BulkDock Fragalysis export,openbind_a71ev2a_c2_elabs_scored_top80percent,openbind_a71ev2a_c2_elabs_scored_top80percent_despaghettified,syndirella_placed

>  <smina_score_min>  (445) 
-6.302

$$$$
